### 
### Created by X-TOOL on Sun Aug  5 21:49:42 2018
### 

@<TRIPOS>MOLECULE
site144
   40    42     1     0     0
SMALL
USER_CHARGES


@<TRIPOS>ATOM
      1 PB          3.8115   23.4101   10.8695 P.3       1 SUB1        0.223
      2 O1B         4.2059   24.4799    9.8944 O.co2     1 SUB1        0.335
      3 O2B         4.1735   23.6614   12.3924 O.3       1 SUB1        0.318
      4 O3B         2.3808   22.9589   10.8128 O.co2     1 SUB1        0.273
      5 PA          5.6553   21.0306   11.4937 P.3       1 SUB1        0.154
      6 O1A         4.6706   20.4102   12.4320 O.co2     1 SUB1        0.187
      7 O2A         6.9003   21.6001   12.0586 O.co2     1 SUB1        0.297
      8 O3A         4.8098   22.1566   10.4993 O.3       1 SUB1        0.202
      9 O5'         6.0760   20.0032   10.2436 O.3       1 SUB1        0.115
     10 C5'         5.0024   19.4112    9.4150 C.3       1 SUB1        0.127
     11 C4'         5.3052   17.9260    9.2401 C.3       1 SUB1        0.144
     12 O4'         6.5229   17.8248    8.4981 O.3       1 SUB1        0.168
     13 C3'         5.5459   17.1672   10.5456 C.3       1 SUB1        0.176
     14 O3'         5.0841   15.7939   10.4547 O.3       1 SUB1        0.146
     15 C2'         7.0456   17.1914   10.7725 C.3       1 SUB1        0.193
     16 O2'         7.5254   16.0940   11.5951 O.3       1 SUB1        0.229
     17 C1'         7.5218   17.1305    9.3145 C.3       1 SUB1        0.147
     18 N9          8.8576   17.8608    9.2756 N.ar      1 SUB1        0.154
     19 C8          8.9572   19.1963    9.3325 C.ar      1 SUB1        0.228
     20 N7         10.2051   19.5377    9.0799 N.ar      1 SUB1        0.265
     21 C5         10.8846   18.4548    8.7190 C.ar      1 SUB1        0.251
     22 C6         12.2309   18.2421    8.4514 C.ar      1 SUB1        0.279
     23 N6         13.1340   19.2303    8.4005 N.pl3     1 SUB1        0.388
     24 N1         12.5668   16.9892    8.0841 N.ar      1 SUB1        0.329
     25 C2         11.6344   16.0489    7.9316 C.ar      1 SUB1        0.261
     26 N3         10.4221   16.1468    8.4714 N.ar      1 SUB1        0.213
     27 C4          9.9867   17.4012    8.7275 C.ar      1 SUB1        0.227
     28 H5'         4.0404   19.5363    9.9121 H         1 SUB1        0.000
     29 H5''        4.9789   19.8989    8.4404 H         1 SUB1        0.000
     30 H4'         4.4971   17.4506    8.6841 H         1 SUB1        0.000
     31 H3'         5.0394   17.6741   11.3669 H         1 SUB1        0.000
     32 H2'         7.3372   18.1426   11.2177 H         1 SUB1        0.000
     33 H1'         7.6368   16.0968    8.9884 H         1 SUB1        0.000
     34 H8          8.1491   19.8793    9.5494 H         1 SUB1        0.000
     35 H2         11.8724   15.1728    7.3466 H         1 SUB1        0.000
     36 HN61       12.8602   20.1775    8.6196 H         1 SUB1        0.000
     37 HN62       14.0893   19.0279    8.1428 H         1 SUB1        0.000
     38 HO2'        8.4770   16.1652   11.7012 H         1 SUB1        0.000
     39 H2B         3.7358   24.4591   12.6984 H         1 SUB1        0.000
     40 HO3'        4.1350   15.7838   10.3112 H         1 SUB1        0.000
@<TRIPOS>BOND
     1    1    2 2  
     2    1    3 1  
     3    1    4 2  
     4    1    8 1  
     5    5    6 2  
     6    5    7 2  
     7    5    8 1  
     8    5    9 1  
     9    9   10 1  
    10   10   11 1  
    11   11   12 1  
    12   11   13 1  
    13   12   17 1  
    14   13   14 1  
    15   13   15 1  
    16   15   16 1  
    17   15   17 1  
    18   17   18 1  
    19   18   19 ar 
    20   18   27 ar 
    21   19   20 ar 
    22   20   21 ar 
    23   21   22 ar 
    24   21   27 ar 
    25   22   23 1  
    26   22   24 ar 
    27   24   25 ar 
    28   25   26 ar 
    29   26   27 ar 
    30   28   10 1  
    31   29   10 1  
    32   30   11 1  
    33   31   13 1  
    34   32   15 1  
    35   33   17 1  
    36   34   19 1  
    37   35   25 1  
    38   36   23 1  
    39   37   23 1  
    40   38   16 1  
    41   39    3 1  
    42   40   14 1  
@<TRIPOS>SUBSTRUCTURE
     1 SUB1        1 GROUP

