### 
### Created by X-TOOL on Sun Aug  5 21:49:42 2018
### 

@<TRIPOS>MOLECULE
site1670
   40    42     1     0     0
SMALL
USER_CHARGES


@<TRIPOS>ATOM
      1 PB          3.8627   23.4942   10.8248 P.3       1 SUB1        0.226
      2 O1B         4.2979   24.5624    9.8653 O.co2     1 SUB1        0.327
      3 O2B         4.2035   23.7257   12.3557 O.3       1 SUB1        0.320
      4 O3B         2.4236   23.0757   10.7396 O.co2     1 SUB1        0.284
      5 PA          5.6416   21.0693   11.4615 P.3       1 SUB1        0.154
      6 O1A         4.6271   20.4638   12.3775 O.co2     1 SUB1        0.188
      7 O2A         6.8890   21.6061   12.0525 O.co2     1 SUB1        0.297
      8 O3A         4.8391   22.2214   10.4617 O.3       1 SUB1        0.205
      9 O5'         6.0612   20.0423   10.2105 O.3       1 SUB1        0.116
     10 C5'         4.9893   19.4810    9.3587 C.3       1 SUB1        0.127
     11 C4'         5.2618   17.9908    9.1771 C.3       1 SUB1        0.144
     12 O4'         6.4898   17.8680    8.4554 O.3       1 SUB1        0.169
     13 C3'         5.4628   17.2167   10.4803 C.3       1 SUB1        0.175
     14 O3'         4.9721   15.8547   10.3703 O.3       1 SUB1        0.146
     15 C2'         6.9584   17.2053   10.7333 C.3       1 SUB1        0.193
     16 O2'         7.3992   16.0911   11.5552 O.3       1 SUB1        0.222
     17 C1'         7.4585   17.1450    9.2835 C.3       1 SUB1        0.146
     18 N9          8.8108   17.8455    9.2736 N.ar      1 SUB1        0.153
     19 C8          8.9391   19.1780    9.3429 C.ar      1 SUB1        0.227
     20 N7         10.1986   19.4932    9.1148 N.ar      1 SUB1        0.262
     21 C5         10.8599   18.3982    8.7570 C.ar      1 SUB1        0.249
     22 C6         12.2056   18.1573    8.5110 C.ar      1 SUB1        0.278
     23 N6         13.1313   19.1253    8.4838 N.pl3     1 SUB1        0.391
     24 N1         12.5198   16.9001    8.1394 N.ar      1 SUB1        0.327
     25 C2         11.5696   15.9821    7.9633 C.ar      1 SUB1        0.259
     26 N3         10.3505   16.1031    8.4827 N.ar      1 SUB1        0.211
     27 C4          9.9387   17.3649    8.7413 C.ar      1 SUB1        0.226
     28 H5'         4.0218   19.6237    9.8401 H         1 SUB1        0.000
     29 H5''        4.9937   19.9766    8.3879 H         1 SUB1        0.000
     30 H4'         4.4532   17.5379    8.6033 H         1 SUB1        0.000
     31 H3'         4.9533   17.7284   11.2968 H         1 SUB1        0.000
     32 H2'         7.2633   18.1465   11.1911 H         1 SUB1        0.000
     33 H1'         7.5561   16.1115    8.9509 H         1 SUB1        0.000
     34 H8          8.1428   19.8773    9.5514 H         1 SUB1        0.000
     35 H2         11.7982   15.1054    7.3754 H         1 SUB1        0.000
     36 HN61       12.8749   20.0767    8.7058 H         1 SUB1        0.000
     37 HN62       14.0861   18.9035    8.2410 H         1 SUB1        0.000
     38 HO2'        8.3500   16.1402   11.6784 H         1 SUB1        0.000
     39 H2B         3.7785   24.5306   12.6606 H         1 SUB1        0.000
     40 HO3'        4.0256   15.8672   10.2102 H         1 SUB1        0.000
@<TRIPOS>BOND
     1    1    2 2  
     2    1    3 1  
     3    1    4 2  
     4    1    8 1  
     5    5    6 2  
     6    5    7 2  
     7    5    8 1  
     8    5    9 1  
     9    9   10 1  
    10   10   11 1  
    11   11   12 1  
    12   11   13 1  
    13   12   17 1  
    14   13   14 1  
    15   13   15 1  
    16   15   16 1  
    17   15   17 1  
    18   17   18 1  
    19   18   19 ar 
    20   18   27 ar 
    21   19   20 ar 
    22   20   21 ar 
    23   21   22 ar 
    24   21   27 ar 
    25   22   23 1  
    26   22   24 ar 
    27   24   25 ar 
    28   25   26 ar 
    29   26   27 ar 
    30   28   10 1  
    31   29   10 1  
    32   30   11 1  
    33   31   13 1  
    34   32   15 1  
    35   33   17 1  
    36   34   19 1  
    37   35   25 1  
    38   36   23 1  
    39   37   23 1  
    40   38   16 1  
    41   39    3 1  
    42   40   14 1  
@<TRIPOS>SUBSTRUCTURE
     1 SUB1        1 GROUP

