### 
### Created by X-TOOL on Sun Aug  5 21:49:42 2018
### 

@<TRIPOS>MOLECULE
site1524
   40    42     1     0     0
SMALL
USER_CHARGES


@<TRIPOS>ATOM
      1 PB          3.8912   23.2675   10.8810 P.3       1 SUB1        0.222
      2 O1B         4.2708   24.3436    9.9071 O.co2     1 SUB1        0.333
      3 O2B         4.2475   23.5233   12.4045 O.3       1 SUB1        0.312
      4 O3B         2.4674   22.7951   10.8223 O.co2     1 SUB1        0.273
      5 PA          5.7693   20.9151   11.5061 P.3       1 SUB1        0.152
      6 O1A         4.7928   20.2797   12.4429 O.co2     1 SUB1        0.186
      7 O2A         7.0050   21.5029   12.0729 O.co2     1 SUB1        0.296
      8 O3A         4.9084   22.0290   10.5113 O.3       1 SUB1        0.193
      9 O5'         6.2069   19.8950   10.2560 O.3       1 SUB1        0.113
     10 C5'         5.1432   19.2877    9.4256 C.3       1 SUB1        0.128
     11 C4'         5.4682   17.8071    9.2502 C.3       1 SUB1        0.144
     12 O4'         6.6883   17.7245    8.5098 O.3       1 SUB1        0.167
     13 C3'         5.7186   17.0512   10.5556 C.3       1 SUB1        0.177
     14 O3'         5.2774   15.6713   10.4633 O.3       1 SUB1        0.145
     15 C2'         7.2175   17.0975   10.7844 C.3       1 SUB1        0.194
     16 O2'         7.7125   16.0069   11.6070 O.3       1 SUB1        0.222
     17 C1'         7.6963   17.0447    9.3270 C.3       1 SUB1        0.148
     18 N9          9.0212   17.7946    9.2903 N.ar      1 SUB1        0.154
     19 C8          9.1008   19.1316    9.3480 C.ar      1 SUB1        0.227
     20 N7         10.3439   19.4916    9.0971 N.ar      1 SUB1        0.264
     21 C5         11.0398   18.4192    8.7365 C.ar      1 SUB1        0.253
     22 C6         12.3895   18.2266    8.4704 C.ar      1 SUB1        0.281
     23 N6         13.2777   19.2282    8.4213 N.pl3     1 SUB1        0.405
     24 N1         12.7443   16.9792    8.1029 N.ar      1 SUB1        0.325
     25 C2         11.8263   16.0252    7.9487 C.ar      1 SUB1        0.259
     26 N3         10.6119   16.1046    8.4870 N.ar      1 SUB1        0.216
     27 C4         10.1577   17.3523    8.7432 C.ar      1 SUB1        0.229
     28 H5'         4.1789   19.3981    9.9216 H         1 SUB1        0.000
     29 H5''        5.1136   19.7754    8.4514 H         1 SUB1        0.000
     30 H4'         4.6680   17.3203    8.6930 H         1 SUB1        0.000
     31 H3'         5.2035   17.5500   11.3766 H         1 SUB1        0.000
     32 H2'         7.4944   18.0528   11.2305 H         1 SUB1        0.000
     33 H1'         7.8271   16.0130    9.0004 H         1 SUB1        0.000
     34 H8          8.2824   19.8024    9.5643 H         1 SUB1        0.000
     35 H2         12.0780   15.1531    7.3635 H         1 SUB1        0.000
     36 HN61       12.9897   20.1711    8.6406 H         1 SUB1        0.000
     37 HN62       14.2363   19.0402    8.1647 H         1 SUB1        0.000
     38 HO2'        8.6628   16.0922   11.7143 H         1 SUB1        0.000
     39 H2B         3.7976   24.3143   12.7105 H         1 SUB1        0.000
     40 HO3'        4.3287   15.6472   10.3186 H         1 SUB1        0.000
@<TRIPOS>BOND
     1    1    2 2  
     2    1    3 1  
     3    1    4 2  
     4    1    8 1  
     5    5    6 2  
     6    5    7 2  
     7    5    8 1  
     8    5    9 1  
     9    9   10 1  
    10   10   11 1  
    11   11   12 1  
    12   11   13 1  
    13   12   17 1  
    14   13   14 1  
    15   13   15 1  
    16   15   16 1  
    17   15   17 1  
    18   17   18 1  
    19   18   19 ar 
    20   18   27 ar 
    21   19   20 ar 
    22   20   21 ar 
    23   21   22 ar 
    24   21   27 ar 
    25   22   23 1  
    26   22   24 ar 
    27   24   25 ar 
    28   25   26 ar 
    29   26   27 ar 
    30   28   10 1  
    31   29   10 1  
    32   30   11 1  
    33   31   13 1  
    34   32   15 1  
    35   33   17 1  
    36   34   19 1  
    37   35   25 1  
    38   36   23 1  
    39   37   23 1  
    40   38   16 1  
    41   39    3 1  
    42   40   14 1  
@<TRIPOS>SUBSTRUCTURE
     1 SUB1        1 GROUP

