### 
### Created by X-TOOL on Sun Aug  5 21:49:42 2018
### 

@<TRIPOS>MOLECULE
site1326
   40    42     1     0     0
SMALL
USER_CHARGES


@<TRIPOS>ATOM
      1 PB          3.8020   23.4540   10.8856 P.3       1 SUB1        0.225
      2 O1B         4.2166   24.5161    9.9105 O.co2     1 SUB1        0.336
      3 O2B         4.1672   23.6991   12.4088 O.3       1 SUB1        0.321
      4 O3B         2.3633   23.0289   10.8279 O.co2     1 SUB1        0.274
      5 PA          5.6014   21.0413   11.5122 P.3       1 SUB1        0.154
      6 O1A         4.6047   20.4394   12.4499 O.co2     1 SUB1        0.187
      7 O2A         6.8561   21.5882   12.0779 O.co2     1 SUB1        0.296
      8 O3A         4.7775   22.1822   10.5166 O.3       1 SUB1        0.204
      9 O5'         6.0043   20.0060   10.2628 O.3       1 SUB1        0.115
     10 C5'         4.9208   19.4335    9.4335 C.3       1 SUB1        0.125
     11 C4'         5.1965   17.9429    9.2593 C.3       1 SUB1        0.141
     12 O4'         6.4128   17.8191    8.5183 O.3       1 SUB1        0.168
     13 C3'         5.4222   17.1801   10.5652 C.3       1 SUB1        0.175
     14 O3'         4.9354   15.8155   10.4744 O.3       1 SUB1        0.145
     15 C2'         6.9219   17.1772   10.7934 C.3       1 SUB1        0.192
     16 O2'         7.3809   16.0715   11.6168 O.3       1 SUB1        0.227
     17 C1'         7.3981   17.1070    9.3359 C.3       1 SUB1        0.146
     18 N9          8.7471   17.8129    9.2978 N.ar      1 SUB1        0.152
     19 C8          8.8710   19.1462    9.3544 C.ar      1 SUB1        0.227
     20 N7         10.1252   19.4648    9.1026 N.ar      1 SUB1        0.268
     21 C5         10.7851   18.3694    8.7428 C.ar      1 SUB1        0.248
     22 C6         12.1276   18.1320    8.4763 C.ar      1 SUB1        0.277
     23 N6         13.0485   19.1035    8.4260 N.pl3     1 SUB1        0.384
     24 N1         12.4407   16.8732    8.1098 N.ar      1 SUB1        0.327
     25 C2         11.4914   15.9500    7.9568 C.ar      1 SUB1        0.259
     26 N3         10.2807   16.0702    8.4956 N.ar      1 SUB1        0.209
     27 C4          9.8681   17.3324    8.7508 C.ar      1 SUB1        0.224
     28 H5'         3.9608   19.5763    9.9296 H         1 SUB1        0.000
     29 H5''        4.9069   19.9214    8.4588 H         1 SUB1        0.000
     30 H4'         4.3803   17.4822    8.7027 H         1 SUB1        0.000
     31 H3'         4.9243   17.6966   11.3860 H         1 SUB1        0.000
     32 H2'         7.2305   18.1231   11.2385 H         1 SUB1        0.000
     33 H1'         7.4945   16.0713    9.0101 H         1 SUB1        0.000
     34 H8          8.0753   19.8440    9.5704 H         1 SUB1        0.000
     35 H2         11.7138   15.0694    7.3723 H         1 SUB1        0.000
     36 HN61       12.7919   20.0556    8.6444 H         1 SUB1        0.000
     37 HN62       14.0002   18.8837    8.1691 H         1 SUB1        0.000
     38 HO2'        8.3334   16.1253   11.7237 H         1 SUB1        0.000
     39 H2B         3.7439   24.5048   12.7141 H         1 SUB1        0.000
     40 HO3'        3.9864   15.8229   10.3301 H         1 SUB1        0.000
@<TRIPOS>BOND
     1    1    2 2  
     2    1    3 1  
     3    1    4 2  
     4    1    8 1  
     5    5    6 2  
     6    5    7 2  
     7    5    8 1  
     8    5    9 1  
     9    9   10 1  
    10   10   11 1  
    11   11   12 1  
    12   11   13 1  
    13   12   17 1  
    14   13   14 1  
    15   13   15 1  
    16   15   16 1  
    17   15   17 1  
    18   17   18 1  
    19   18   19 ar 
    20   18   27 ar 
    21   19   20 ar 
    22   20   21 ar 
    23   21   22 ar 
    24   21   27 ar 
    25   22   23 1  
    26   22   24 ar 
    27   24   25 ar 
    28   25   26 ar 
    29   26   27 ar 
    30   28   10 1  
    31   29   10 1  
    32   30   11 1  
    33   31   13 1  
    34   32   15 1  
    35   33   17 1  
    36   34   19 1  
    37   35   25 1  
    38   36   23 1  
    39   37   23 1  
    40   38   16 1  
    41   39    3 1  
    42   40   14 1  
@<TRIPOS>SUBSTRUCTURE
     1 SUB1        1 GROUP

