### 
### Created by X-TOOL on Sun Aug  5 21:49:42 2018
### 

@<TRIPOS>MOLECULE
site1103
   40    42     1     0     0
SMALL
USER_CHARGES


@<TRIPOS>ATOM
      1 PB          3.8557   23.4131   10.8887 P.3       1 SUB1        0.224
      2 O1B         4.2859   24.4962    9.9440 O.co2     1 SUB1        0.338
      3 O2B         4.1975   23.6240   12.4224 O.3       1 SUB1        0.319
      4 O3B         2.4179   22.9905   10.7994 O.co2     1 SUB1        0.281
      5 PA          5.6441   20.9856   11.4891 P.3       1 SUB1        0.153
      6 O1A         4.6329   20.3638   12.3977 O.co2     1 SUB1        0.186
      7 O2A         6.8902   21.5188   12.0861 O.co2     1 SUB1        0.297
      8 O3A         4.8362   22.1490   10.5066 O.3       1 SUB1        0.200
      9 O5'         6.0659   19.9780   10.2233 O.3       1 SUB1        0.114
     10 C5'         4.9949   19.4250    9.3648 C.3       1 SUB1        0.127
     11 C4'         5.2726   17.9384    9.1618 C.3       1 SUB1        0.144
     12 O4'         6.5002   17.8302    8.4372 O.3       1 SUB1        0.169
     13 C3'         5.4778   17.1467   10.4538 C.3       1 SUB1        0.174
     14 O3'         4.9919   15.7848   10.3252 O.3       1 SUB1        0.146
     15 C2'         6.9738   17.1373   10.7049 C.3       1 SUB1        0.192
     16 O2'         7.4196   16.0132   11.5105 O.3       1 SUB1        0.210
     17 C1'         7.4724   17.0992    9.2537 C.3       1 SUB1        0.146
     18 N9          8.8221   17.8045    9.2523 N.ar      1 SUB1        0.152
     19 C8          8.9458   19.1364    9.3404 C.ar      1 SUB1        0.227
     20 N7         10.2039   19.4594    9.1151 N.ar      1 SUB1        0.262
     21 C5         10.8687   18.3718    8.7411 C.ar      1 SUB1        0.249
     22 C6         12.2150   18.1393    8.4903 C.ar      1 SUB1        0.278
     23 N6         13.1371   19.1110    8.4756 N.pl3     1 SUB1        0.393
     24 N1         12.5332   16.8886    8.1006 N.ar      1 SUB1        0.327
     25 C2         11.5860   15.9699    7.9125 C.ar      1 SUB1        0.259
     26 N3         10.3671   16.0790    8.4351 N.ar      1 SUB1        0.212
     27 C4          9.9512   17.3356    8.7120 C.ar      1 SUB1        0.225
     28 H5'         4.0275   19.5574    9.8492 H         1 SUB1        0.000
     29 H5''        4.9964   19.9342    8.4011 H         1 SUB1        0.000
     30 H4'         4.4649   17.4908    8.5827 H         1 SUB1        0.000
     31 H3'         4.9676   17.6451   11.2780 H         1 SUB1        0.000
     32 H2'         7.2759   18.0728   11.1757 H         1 SUB1        0.000
     33 H1'         7.5733   16.0710    8.9066 H         1 SUB1        0.000
     34 H8          8.1472   19.8298    9.5595 H         1 SUB1        0.000
     35 H2         11.8170   15.1024    7.3121 H         1 SUB1        0.000
     36 HN61       12.8776   20.0582    8.7114 H         1 SUB1        0.000
     37 HN62       14.0925   18.8961    8.2287 H         1 SUB1        0.000
     38 HO2'        8.3704   16.0638   11.6333 H         1 SUB1        0.000
     39 H2B         3.7699   24.4231   12.7391 H         1 SUB1        0.000
     40 HO3'        4.0452   15.7960   10.1664 H         1 SUB1        0.000
@<TRIPOS>BOND
     1    1    2 2  
     2    1    3 1  
     3    1    4 2  
     4    1    8 1  
     5    5    6 2  
     6    5    7 2  
     7    5    8 1  
     8    5    9 1  
     9    9   10 1  
    10   10   11 1  
    11   11   12 1  
    12   11   13 1  
    13   12   17 1  
    14   13   14 1  
    15   13   15 1  
    16   15   16 1  
    17   15   17 1  
    18   17   18 1  
    19   18   19 ar 
    20   18   27 ar 
    21   19   20 ar 
    22   20   21 ar 
    23   21   22 ar 
    24   21   27 ar 
    25   22   23 1  
    26   22   24 ar 
    27   24   25 ar 
    28   25   26 ar 
    29   26   27 ar 
    30   28   10 1  
    31   29   10 1  
    32   30   11 1  
    33   31   13 1  
    34   32   15 1  
    35   33   17 1  
    36   34   19 1  
    37   35   25 1  
    38   36   23 1  
    39   37   23 1  
    40   38   16 1  
    41   39    3 1  
    42   40   14 1  
@<TRIPOS>SUBSTRUCTURE
     1 SUB1        1 GROUP

