@<TRIPOS>MOLECULE
1bs1A_BS02_ADP.pdb
40 42 1 0 0
SMALL
AMBER ff14SB


@<TRIPOS>ATOM
      1 PB          3.7980   23.2410   10.8920 P.3       1 ADP802      1.5848
      2 O1B         4.1570   24.2740    9.8650 O.co2     1 ADP802     -0.8765
      3 O2B         4.2070   23.5510   12.3920 O.3       1 ADP802     -0.7974
      4 O3B         2.3680   22.7840   10.8980 O.co2     1 ADP802     -0.8765
      5 PA          5.6700   20.8920   11.5470 P.3       1 ADP802      1.5938
      6 O1A         4.7180   20.3050   12.5390 O.co2     1 ADP802     -0.8770
      7 O2A         6.9300   21.4860   12.0500 O.co2     1 ADP802     -0.8770
      8 O3A         4.7890   21.9770   10.5380 O.3       1 ADP802     -0.8308
      9 O5'         6.0550   19.8190   10.3240 O.3       1 ADP802     -0.6082
     10 C5'         4.9580   19.1930    9.5530 C.3       1 ADP802      0.1844
     11 C4'         5.2610   17.7030    9.4250 C.3       1 ADP802      0.1111
     12 O4'         6.4550   17.5770    8.6490 O.3       1 ADP802     -0.4246
     13 C3'         5.5460   16.9950   10.7500 C.3       1 ADP802      0.0921
     14 O3'         5.0870   15.6180   10.7260 O.3       1 ADP802     -0.6048
     15 C2'         7.0520   17.0320   10.9280 C.3       1 ADP802      0.0761
     16 O2'         7.5620   15.9680   11.7760 O.3       1 ADP802     -0.5988
     17 C1'         7.4820   16.9170    9.4590 C.3       1 ADP802      0.2248
     18 N9          8.8130   17.6490    9.3500 N.ar      1 ADP802     -0.2552
     19 C8          8.9090   18.9860    9.3530 C.ar      1 ADP802      0.1492
     20 N7         10.1470   19.3210    9.0480 N.ar      1 ADP802     -0.1610
     21 C5         10.8190   18.2270    8.7070 C.ar      1 ADP802     -0.3376
     22 C6         12.1570   18.0080    8.4050 C.ar      1 ADP802      0.7002
     23 N6         13.0540   18.9960    8.2880 N.pl3     1 ADP802     -0.9335
     24 N1         12.4860   16.7430    8.0750 N.ar      1 ADP802     -0.8030
     25 C2         11.5530   15.7950    7.9880 C.ar      1 ADP802      0.6429
     26 N3         10.3580   15.9100    8.5620 N.ar      1 ADP802     -0.7210
     27 C4          9.9260   17.1720    8.7840 C.ar      1 ADP802      0.4558
     28 H5'         4.0118   19.3342   10.0753 H         1 ADP802      0.0527
     29 H5''        4.9017   19.6432    8.5619 H         1 ADP802      0.0527
     30 H4'         4.4376   17.2046    8.9134 H         1 ADP802      0.0737
     31 H3'         5.0637   17.5314   11.5672 H         1 ADP802      0.1727
     32 H2'         7.3538   18.0003   11.3273 H         1 ADP802      0.0927
     33 H1'         7.5907   15.8720    9.1688 H         1 ADP802      0.0897
     34 H8          8.1055   19.6745    9.5694 H         1 ADP802      0.1608
     35 H2         11.7758   14.8979    7.4294 H         1 ADP802      0.0281
     36 HN61       12.7836   19.9501    8.4796 H         1 ADP802      0.4133
     37 HN62       14.0015   18.7866    8.0079 H         1 ADP802      0.4133
     38 HO2'        8.5161   16.0458   11.8490 H         1 ADP802      0.3970
     39 H2B         3.7761   24.3586   12.6813 H         1 ADP802      0.4210
     40 HO3'        4.1338   15.5999   10.6132 H         1 ADP802      0.4020
@<TRIPOS>BOND
     1    1    2 1
     2    1    3 1
     3    1    4 1
     4    1    8 1
     5    5    6 1
     6    5    7 1
     7    5    8 1
     8    5    9 1
     9    9   10 1
    10   10   11 1
    11   11   12 1
    12   11   13 1
    13   12   17 1
    14   13   14 1
    15   13   15 1
    16   15   16 1
    17   15   17 1
    18   17   18 1
    19   18   19 ar
    20   18   27 ar
    21   19   20 ar
    22   20   21 ar
    23   21   22 ar
    24   21   27 ar
    25   22   23 1
    26   22   24 ar
    27   24   25 ar
    28   25   26 ar
    29   26   27 ar
    30   28   10 1
    31   29   10 1
    32   30   11 1
    33   31   13 1
    34   32   15 1
    35   33   17 1
    36   34   19 1
    37   35   25 1
    38   36   23 1
    39   37   23 1
    40   38   16 1
    41   39    3 1
    42   40   14 1
@<TRIPOS>SUBSTRUCTURE
     1 ADP802     11 RESIDUE           4 A     ADP     0 ROOT
