@<TRIPOS>MOLECULE
ADP  ADENOSINE-5'-DIPHOSPHATE.  C10 H15 N5 O10 P2.
   42    44     1     0     0
SMALL
bcc via mopac
****
From PDBeChem: antechamber -fi pdb -fo mol2 -i ADP.pdb -o adp.mol2 -c bcc
@<TRIPOS>ATOM
      1 PB          1.1620   -0.2210   -5.6850 p5        1 ADP      1.814600
      2 O1B         1.7250    1.1330   -5.4920 o         1 ADP     -0.810100
      3 O2B         2.1900   -1.1120   -6.5460 oh        1 ADP     -0.813200
      4 O3B        -0.2400   -0.1130   -6.4670 oh        1 ADP     -0.765800
      5 PA         -0.1050    0.0250   -3.4460 p5        1 ADP      1.819700
      6 O1A         0.4760    1.3760   -3.2880 o         1 ADP     -0.823500
      7 O2A        -1.4870    0.1290   -4.2660 oh        1 ADP     -0.764400
      8 O3A         0.9250   -0.9130   -4.2500 os        1 ADP     -0.814800
      9 O5'        -0.3890   -0.6090   -1.9940 os        1 ADP     -0.616200
     10 C5'        -1.3070    0.2640   -1.3330 c3        1 ADP      0.166200
     11 C4'        -1.6200   -0.2840    0.0590 c3        1 ADP      0.068200
     12 O4'        -0.4170   -0.3480    0.8570 os        1 ADP     -0.417800
     13 C3'        -2.5500    0.6830    0.8250 c3        1 ADP      0.134000
     14 O3'        -3.9070    0.2450    0.7390 oh        1 ADP     -0.575300
     15 C2'        -2.0470    0.6110    2.2860 c3        1 ADP      0.083100
     16 O2'        -3.0800    0.1290    3.1480 oh        1 ADP     -0.598700
     17 C1'        -0.8710   -0.3880    2.2270 c3        1 ADP      0.235000
     18 N9          0.2010    0.0310    3.1320 na        1 ADP     -0.304600
     19 C8          1.2310    0.8700    2.8270 cc        1 ADP      0.432500
     20 N7          2.0000    1.0270    3.8650 nd        1 ADP     -0.547100
     21 C5          1.5090    0.3050    4.9020 ca        1 ADP     -0.224600
     22 C6          1.9100    0.0870    6.2310 ca        1 ADP      0.763700
     23 N6          3.0440    0.6970    6.7380 nh        1 ADP     -0.957600
     24 N1          1.1710   -0.7140    6.9910 nb        1 ADP     -0.796200
     25 C2          0.0880   -1.3000    6.5160 ca        1 ADP      0.688000
     26 N3         -0.3210   -1.1300    5.2770 nb        1 ADP     -0.767100
     27 C4          0.3530   -0.3460    4.4420 ca        1 ADP      0.441000
     28 HOB2        2.3040   -0.6640   -7.3960 ho        1 ADP      0.497000
     29 HOB3       -0.5720   -1.0160   -6.5710 ho        1 ADP      0.493200
     30 HOA2       -1.8330   -0.7700   -4.3460 ho        1 ADP      0.492200
     31 H5'1       -2.2270    0.3300   -1.9130 h1        1 ADP      0.073000
     32 H5'2       -0.8620    1.2550   -1.2420 h1        1 ADP      0.071100
     33 H4'        -2.0780   -1.2700   -0.0150 h1        1 ADP      0.099200
     34 H3'        -2.4510    1.6960    0.4350 h1        1 ADP      0.092500
     35 HO3'       -4.4390    0.8840    1.2330 ho        1 ADP      0.427800
     36 H2'        -1.6990    1.5890    2.6180 h1        1 ADP      0.088800
     37 HO2'       -3.8070    0.7640    3.0940 ho        1 ADP      0.439000
     38 H1'        -1.2120   -1.3910    2.4850 h2        1 ADP      0.099900
     39 H8          1.3870    1.3350    1.8650 h5        1 ADP      0.126500
     40 HN61        3.3080    0.5420    7.6580 hn        1 ADP      0.444700
     41 HN62        3.5770    1.2770    6.1720 hn        1 ADP      0.456600
     42 H2         -0.4820   -1.9440    7.1690 h5        1 ADP      0.049200
@<TRIPOS>BOND
     1    1    2 2   
     2    1    3 1   
     3    1    4 1   
     4    1    8 1   
     5    3   28 1   
     6    4   29 1   
     7    5    6 2   
     8    5    7 1   
     9    5    8 1   
    10    5    9 1   
    11    7   30 1   
    12    9   10 1   
    13   10   11 1   
    14   10   31 1   
    15   10   32 1   
    16   11   12 1   
    17   11   13 1   
    18   11   33 1   
    19   12   17 1   
    20   13   14 1   
    21   13   15 1   
    22   13   34 1   
    23   14   35 1   
    24   15   16 1   
    25   15   17 1   
    26   15   36 1   
    27   16   37 1   
    28   17   18 1   
    29   17   38 1   
    30   18   19 1   
    31   18   27 1   
    32   19   20 2   
    33   19   39 1   
    34   20   21 1   
    35   21   22 ar  
    36   21   27 ar  
    37   22   23 1   
    38   22   24 ar  
    39   23   40 1   
    40   23   41 1   
    41   24   25 ar  
    42   25   26 ar  
    43   25   42 1   
    44   26   27 ar  
@<TRIPOS>SUBSTRUCTURE
     1 ADP         1 TEMP              0 ****  ****    0 ROOT
