@<TRIPOS>MOLECULE
APC  DIPHOSPHOMETHYLPHOSPHONIC ACID ADENOSYL ESTER.  C11 H18 N5 O12 P3. 
   49    51     1     0     0
SMALL
bcc via mopac
****
From PDBeChem: antechamber -fi pdb -fo mol2 -i APC.pdb -o apc.mol2 -c bcc
@<TRIPOS>ATOM
      1 PG          1.2390   -0.2390   -7.0920 p5        1 APC      1.765800
      2 O1G         1.7660    1.1350   -6.9440 o         1 APC     -0.827900
      3 O2G         2.1730   -1.0660   -8.1090 oh        1 APC     -0.814100
      4 O3G        -0.2620   -0.1790   -7.6710 oh        1 APC     -0.749300
      5 PB          0.2820   -0.0930   -4.6940 p5        1 APC      1.697400
      6 O1B         0.8240    1.2790   -4.5830 o         1 APC     -0.893300
      7 O2B        -1.2020   -0.0350   -5.3140 oh        1 APC     -0.787300
      8 O3B         1.2310   -0.9680   -5.6560 os        1 APC     -0.732100
      9 PA         -0.8510    0.1320   -1.9520 p5        1 APC      1.600300
     10 O1A        -0.3090    1.5050   -1.8410 o         1 APC     -0.812800
     11 O2A        -2.3360    0.1900   -2.5710 oh        1 APC     -0.767900
     12 C3A         0.2220   -0.8580   -3.0410 c3        1 APC     -0.681600
     13 O5'        -0.9050   -0.5420   -0.4910 os        1 APC     -0.611600
     14 C5'        -1.7570    0.2760    0.3110 c3        1 APC      0.173100
     15 C4'        -1.8520   -0.3130    1.7200 c3        1 APC      0.085600
     16 O4'        -0.5490   -0.3390    2.3420 os        1 APC     -0.460500
     17 C3'        -2.7060    0.5960    2.6300 c3        1 APC      0.086600
     18 O3'        -4.0430    0.0990    2.7210 oh        1 APC     -0.581600
     19 C2'        -2.0040    0.5180    4.0060 c3        1 APC      0.073500
     20 O2'        -2.8870   -0.0260    4.9890 oh        1 APC     -0.585800
     21 C1'        -0.8070   -0.4260    3.7610 c3        1 APC      0.259100
     22 N9          0.3610    0.0230    4.5200 na        1 APC     -0.280500
     23 C8          1.3040    0.9130    4.0980 cc        1 APC      0.401200
     24 N7          2.2010    1.0840    5.0250 nd        1 APC     -0.515700
     25 C5          1.8900    0.3210    6.1000 ca        1 APC     -0.217100
     26 C6          2.4790    0.0950    7.3550 ca        1 APC      0.773900
     27 N6          3.6460    0.7450    7.7170 nh        1 APC     -0.915000
     28 N1          1.8870   -0.7530    8.1890 nb        1 APC     -0.782200
     29 C2          0.7730   -1.3780    7.8520 ca        1 APC      0.671800
     30 N3          0.1890   -1.2020    6.6860 nb        1 APC     -0.744000
     31 C4          0.7090   -0.3730    5.7870 ca        1 APC      0.463600
     32 HOG2        2.1500   -0.5970   -8.9540 ho        1 APC      0.479300
     33 HOG3       -0.5670   -1.0930   -7.7520 ho        1 APC      0.486400
     34 HOB2       -1.5170   -0.9480   -5.3690 ho        1 APC      0.497300
     35 HOA2       -2.6520   -0.7210   -2.6260 ho        1 APC      0.496400
     36 H3A1        1.2270   -0.8970   -2.6220 hc        1 APC      0.187000
     37 H3A2       -0.1760   -1.8690   -3.1230 hc        1 APC      0.184400
     38 H5'1       -2.7510    0.3120   -0.1340 h1        1 APC      0.074800
     39 H5'2       -1.3470    1.2840    0.3660 h1        1 APC      0.076900
     40 H4'        -2.2740   -1.3170    1.6820 h1        1 APC      0.076800
     41 H3'        -2.7050    1.6200    2.2560 h1        1 APC      0.100400
     42 HO3'       -4.5270    0.7050    3.2990 ho        1 APC      0.419600
     43 H2'        -1.6540    1.5040    4.3120 h1        1 APC      0.075800
     44 HO2'       -3.6400    0.5760    5.0520 ho        1 APC      0.424800
     45 H1'        -1.0670   -1.4480    4.0370 h2        1 APC      0.127600
     46 H8          1.3060    1.4040    3.1360 h5        1 APC      0.072500
     47 HN61        4.0410    0.5840    8.5880 hn        1 APC      0.434100
     48 HN62        4.0710    1.3590    7.0980 hn        1 APC      0.443900
     49 H2          0.3250   -2.0600    8.5600 h5        1 APC      0.050600
@<TRIPOS>BOND
     1    1    2 2   
     2    1    3 1   
     3    1    4 1   
     4    1    8 1   
     5    3   32 1   
     6    4   33 1   
     7    5    6 2   
     8    5    7 1   
     9    5    8 1   
    10    5   12 1   
    11    7   34 1   
    12    9   10 2   
    13    9   11 1   
    14    9   12 1   
    15    9   13 1   
    16   11   35 1   
    17   12   36 1   
    18   12   37 1   
    19   13   14 1   
    20   14   15 1   
    21   14   38 1   
    22   14   39 1   
    23   15   16 1   
    24   15   17 1   
    25   15   40 1   
    26   16   21 1   
    27   17   18 1   
    28   17   19 1   
    29   17   41 1   
    30   18   42 1   
    31   19   20 1   
    32   19   21 1   
    33   19   43 1   
    34   20   44 1   
    35   21   22 1   
    36   21   45 1   
    37   22   23 1   
    38   22   31 1   
    39   23   24 2   
    40   23   46 1   
    41   24   25 1   
    42   25   26 ar  
    43   25   31 ar  
    44   26   27 1   
    45   26   28 ar  
    46   27   47 1   
    47   27   48 1   
    48   28   29 ar  
    49   29   30 ar  
    50   29   49 1   
    51   30   31 ar  
@<TRIPOS>SUBSTRUCTURE
     1 APC         1 TEMP              0 ****  ****    0 ROOT
