@<TRIPOS>MOLECULE
BMA  Beta-D-Mannose.  C6 H12 O6.
   24    24     1     0     0
SMALL
bcc via mopac
****
Mannose from PDBeChem: antechamber -fi pdb -fo mol2 -i bma.pdb -o bma.mol2 -c bcc
@<TRIPOS>ATOM
      1 C1         -1.4420   -0.5780   -0.5040 c3        1 BMA      0.315900
      2 C2         -0.4930   -0.1940   -1.6420 c3        1 BMA      0.086300
      3 C3          0.9450   -0.5150   -1.2230 c3        1 BMA      0.108300
      4 C4          1.2270    0.1680    0.1190 c3        1 BMA      0.082700
      5 C5          0.1490   -0.2440    1.1240 c3        1 BMA      0.156800
      6 C6          0.4420    0.4050    2.4780 c3        1 BMA      0.134000
      7 O1         -2.7890   -0.3110   -0.8990 oh        1 BMA     -0.613800
      8 O2         -0.6140    1.2020   -1.9150 oh        1 BMA     -0.610600
      9 O3          1.8530   -0.0270   -2.2130 oh        1 BMA     -0.596100
     10 O4          2.5100   -0.2350    0.6010 oh        1 BMA     -0.596600
     11 O5         -1.1300    0.1810    0.6610 os        1 BMA     -0.451100
     12 O6         -0.5610    0.0180    3.4190 oh        1 BMA     -0.599500
     13 H1         -1.3330   -1.6400   -0.2840 h2        1 BMA      0.056700
     14 H2         -0.7480   -0.7630   -2.5370 h1        1 BMA      0.068400
     15 H3          1.0630   -1.5930   -1.1180 h1        1 BMA      0.089200
     16 H4          1.2110    1.2500   -0.0110 h1        1 BMA      0.064200
     17 H5          0.1520   -1.3280    1.2340 h1        1 BMA      0.076000
     18 H61         0.4390    1.4890    2.3690 h1        1 BMA      0.041700
     19 H62         1.4180    0.0780    2.8350 h1        1 BMA      0.056400
     20 HO1        -3.3540   -0.5700   -0.1590 ho        1 BMA      0.442700
     21 HO2        -1.5340    1.3600   -2.1670 ho        1 BMA      0.435300
     22 HO3         1.6300   -0.4740   -3.0410 ho        1 BMA      0.425700
     23 HO4         3.1570    0.0350   -0.0640 ho        1 BMA      0.423500
     24 HO6        -0.3400    0.4470    4.2560 ho        1 BMA      0.404000
@<TRIPOS>BOND
     1    1    2 1   
     2    1    7 1   
     3    1   11 1   
     4    1   13 1   
     5    2    3 1   
     6    2    8 1   
     7    2   14 1   
     8    3    4 1   
     9    3    9 1   
    10    3   15 1   
    11    4    5 1   
    12    4   10 1   
    13    4   16 1   
    14    5    6 1   
    15    5   11 1   
    16    5   17 1   
    17    6   12 1   
    18    6   18 1   
    19    6   19 1   
    20    7   20 1   
    21    8   21 1   
    22    9   22 1   
    23   10   23 1   
    24   12   24 1   
@<TRIPOS>SUBSTRUCTURE
     1 BMA         1 TEMP              0 ****  ****    0 ROOT
