@<TRIPOS>MOLECULE
BOG  B-OCTYLGLUCOSIDE.  C14 H28 O6. 
   48    48     1     0     0
SMALL
bcc via mopac
****
From PDBeChem: antechamber -fi pdb -fo mol2 -i BOG.pdb -o bog.mol2 -c bcc
@<TRIPOS>ATOM
      1 C1         -0.6430   -0.1950   -1.7660 c3        1 BOG      0.307500
      2 O1         -1.2390    0.2290   -0.5380 os        1 BOG     -0.424400
      3 C2         -1.5340    0.2260   -2.9360 c3        1 BOG      0.089300
      4 O2         -2.8310   -0.3520   -2.7830 oh        1 BOG     -0.603900
      5 C3         -0.9040   -0.2640   -4.2450 c3        1 BOG      0.107600
      6 O3         -1.6420    0.2460   -5.3570 oh        1 BOG     -0.605900
      7 C4          0.5410    0.2390   -4.3120 c3        1 BOG      0.122300
      8 O4          1.1950   -0.3270   -5.4490 oh        1 BOG     -0.595400
      9 C5          1.2750   -0.1820   -3.0370 c3        1 BOG      0.107800
     10 O5          0.6440    0.4020   -1.9000 os        1 BOG     -0.449300
     11 C6          2.7290    0.2870   -3.1100 c3        1 BOG      0.141500
     12 O6          3.4190   -0.1110   -1.9230 oh        1 BOG     -0.595400
     13 C1'        -0.3680   -0.1940    0.5110 c3        1 BOG      0.136700
     14 C2'        -0.9510    0.2310    1.8600 c3        1 BOG     -0.084900
     15 C3'        -0.0180   -0.2210    2.9850 c3        1 BOG     -0.078300
     16 C4'        -0.6010    0.2040    4.3340 c3        1 BOG     -0.078300
     17 C5'         0.3310   -0.2490    5.4590 c3        1 BOG     -0.079400
     18 C6'        -0.2510    0.1760    6.8080 c3        1 BOG     -0.079300
     19 C7'         0.6810   -0.2760    7.9320 c3        1 BOG     -0.080100
     20 C8'         0.0980    0.1490    9.2810 c3        1 BOG     -0.092700
     21 H1         -0.5400   -1.2810   -1.7620 h2        1 BOG      0.053800
     22 H2         -1.6190    1.3120   -2.9580 h1        1 BOG      0.078200
     23 HO2        -3.1900   -0.0170   -1.9500 ho        1 BOG      0.425400
     24 H3         -0.9130   -1.3540   -4.2700 h1        1 BOG      0.064100
     25 HO3        -2.5430   -0.0940   -5.2750 ho        1 BOG      0.427500
     26 H4          0.5450    1.3260   -4.3920 h1        1 BOG      0.064400
     27 HO4         0.7010   -0.0360   -6.2280 ho        1 BOG      0.425800
     28 H5          1.2500   -1.2680   -2.9470 h1        1 BOG      0.068300
     29 H61         3.2130   -0.1580   -3.9780 h1        1 BOG      0.090700
     30 H62         2.7560    1.3730   -3.1970 h1        1 BOG      0.037500
     31 HO6         4.3290    0.2040   -2.0100 ho        1 BOG      0.409500
     32 H1'1        0.6110    0.2640    0.3780 h1        1 BOG      0.048100
     33 H1'2       -0.2680   -1.2790    0.4850 h1        1 BOG      0.028500
     34 H2'1       -1.9300   -0.2260    1.9940 hc        1 BOG      0.051400
     35 H2'2       -1.0510    1.3160    1.8860 hc        1 BOG      0.058300
     36 H3'1        0.9610    0.2360    2.8520 hc        1 BOG      0.042900
     37 H3'2        0.0810   -1.3070    2.9590 hc        1 BOG      0.040600
     38 H4'1       -1.5810   -0.2540    4.4670 hc        1 BOG      0.041100
     39 H4'2       -0.7010    1.2890    4.3600 hc        1 BOG      0.042400
     40 H5'1        1.3110    0.2090    5.3250 hc        1 BOG      0.040400
     41 H5'2        0.4310   -1.3340    5.4330 hc        1 BOG      0.039700
     42 H6'1       -1.2310   -0.2810    6.9410 hc        1 BOG      0.039700
     43 H6'2       -0.3510    1.2610    6.8340 hc        1 BOG      0.040200
     44 H7'1        1.6610    0.1810    7.7990 hc        1 BOG      0.038900
     45 H7'2        0.7810   -1.3610    7.9060 hc        1 BOG      0.038500
     46 H8'1        0.7630   -0.1730   10.0830 hc        1 BOG      0.033100
     47 H8'2       -0.0010    1.2340    9.3080 hc        1 BOG      0.032900
     48 H8'3       -0.8810   -0.3090    9.4150 hc        1 BOG      0.032600
@<TRIPOS>BOND
     1    1    2 1   
     2    1    3 1   
     3    1   10 1   
     4    1   21 1   
     5    2   13 1   
     6    3    4 1   
     7    3    5 1   
     8    3   22 1   
     9    4   23 1   
    10    5    6 1   
    11    5    7 1   
    12    5   24 1   
    13    6   25 1   
    14    7    8 1   
    15    7    9 1   
    16    7   26 1   
    17    8   27 1   
    18    9   10 1   
    19    9   11 1   
    20    9   28 1   
    21   11   12 1   
    22   11   29 1   
    23   11   30 1   
    24   12   31 1   
    25   13   14 1   
    26   13   32 1   
    27   13   33 1   
    28   14   15 1   
    29   14   34 1   
    30   14   35 1   
    31   15   16 1   
    32   15   36 1   
    33   15   37 1   
    34   16   17 1   
    35   16   38 1   
    36   16   39 1   
    37   17   18 1   
    38   17   40 1   
    39   17   41 1   
    40   18   19 1   
    41   18   42 1   
    42   18   43 1   
    43   19   20 1   
    44   19   44 1   
    45   19   45 1   
    46   20   46 1   
    47   20   47 1   
    48   20   48 1   
@<TRIPOS>SUBSTRUCTURE
     1 BOG         1 TEMP              0 ****  ****    0 ROOT
