@<TRIPOS>MOLECULE
CME  S,S-(2-HYDROXYETHYL)THIOCYSTEINE.  C5 H11 N O3 S2.
   22    21     1     0     0
SMALL
bcc via mopac
****
From PDBeChem: antechamber -fi pdb -fo mol2 -i CME.pdb -o cme.mol2 -c bcc
@<TRIPOS>ATOM
      1 N           1.9710   -0.4330   -2.7430 n3        1 CME     -0.902300
      2 CA          0.7560   -0.3890   -1.9170 c3        1 CME      0.135800
      3 CB          0.9720    0.5680   -0.7440 c3        1 CME     -0.077800
      4 SG         -0.5380    0.6490    0.2550 ss        1 CME     -0.148700
      5 SD         -0.4230   -1.1550    1.2210 ss        1 CME     -0.158300
      6 CE          0.5120   -0.6640    2.6950 c3        1 CME     -0.032700
      7 CZ         -0.2680    0.4030    3.4630 c3        1 CME      0.132000
      8 OH          0.4680    0.7900    4.6250 oh        1 CME     -0.603500
      9 C          -0.4010    0.0910   -2.7530 c         1 CME      0.648000
     10 O          -0.2080    0.8510   -3.6720 o         1 CME     -0.552400
     11 OXT        -1.6470   -0.3240   -2.4760 oh        1 CME     -0.585200
     12 H           2.7180   -0.7490   -2.1430 hn        1 CME      0.367200
     13 H2          2.1850    0.5190   -2.9950 hn        1 CME      0.366600
     14 HA          0.5400   -1.3870   -1.5360 h1        1 CME      0.107600
     15 HB2         1.7960    0.2090   -0.1280 h1        1 CME      0.073600
     16 HB3         1.2090    1.5620   -1.1250 h1        1 CME      0.114800
     17 HE2         0.6650   -1.5330    3.3350 h1        1 CME      0.104200
     18 HE3         1.4790   -0.2600    2.3940 h1        1 CME      0.082300
     19 HZ2        -0.4210    1.2720    2.8240 h1        1 CME      0.036900
     20 HZ3        -1.2350   -0.0000    3.7650 h1        1 CME      0.039900
     21 HH         -0.0570    1.4620    5.0790 ho        1 CME      0.406100
     22 HXT        -2.3900   -0.0150   -3.0120 ho        1 CME      0.445800
@<TRIPOS>BOND
     1    1    2 1   
     2    1   12 1   
     3    1   13 1   
     4    2    3 1   
     5    2    9 1   
     6    2   14 1   
     7    3    4 1   
     8    3   15 1   
     9    3   16 1   
    10    4    5 1   
    11    5    6 1   
    12    6    7 1   
    13    6   17 1   
    14    6   18 1   
    15    7    8 1   
    16    7   19 1   
    17    7   20 1   
    18    8   21 1   
    19    9   10 2   
    20    9   11 1   
    21   11   22 1   
@<TRIPOS>SUBSTRUCTURE
     1 CME         1 TEMP              0 ****  ****    0 ROOT
