@<TRIPOS>MOLECULE
FAD  FLAVIN-ADENINE DINUCLEOTIDE.  C27 H33 N9 O15 P2. 
   86    91     1     0     0
SMALL
bcc via mopac
****
From PDBeChem: antechamber -fi pdb -fo mol2 -i FAD.pdb -o fad.mol2 -c bcc
@<TRIPOS>ATOM
      1 PA         -1.6480   -0.6290   -3.2290 p5        1 FAD      1.710600
      2 O1A        -3.0350   -1.0880   -2.9920 o         1 FAD     -0.794000
      3 O2A        -0.6780   -1.9060   -3.3780 oh        1 FAD     -0.767100
      4 O5B        -1.5950    0.2450   -4.5800 os        1 FAD     -0.563800
      5 C5B        -2.0360   -0.6050   -5.6400 c3        1 FAD      0.153900
      6 C4B        -2.0090    0.1690   -6.9590 c3        1 FAD      0.141700
      7 O4B        -0.6650    0.5830   -7.2560 os        1 FAD     -0.415300
      8 C3B        -2.4760   -0.7410   -8.1110 c3        1 FAD      0.082800
      9 O3B        -3.6390   -0.2030   -8.7440 oh        1 FAD     -0.587900
     10 C2B        -1.2770   -0.7480   -9.0950 c3        1 FAD      0.062800
     11 O2B        -1.7280   -0.6720  -10.4490 oh        1 FAD     -0.571200
     12 C1B        -0.5180    0.5410   -8.6920 c3        1 FAD      0.259800
     13 N9A         0.8950    0.4490   -9.0630 na        1 FAD     -0.267300
     14 C8A         1.8890   -0.1180   -8.3220 cc        1 FAD      0.415200
     15 N7A         3.0230   -0.0240   -8.9530 nd        1 FAD     -0.548900
     16 C5A         2.8300    0.6060  -10.1360 ca        1 FAD     -0.225400
     17 C6A         3.6630    0.9790  -11.2050 ca        1 FAD      0.774800
     18 N6A         5.0180    0.6980  -11.1780 nh        1 FAD     -0.956500
     19 N1A         3.1190    1.6070  -12.2420 nb        1 FAD     -0.818200
     20 C2A         1.8270    1.8780  -12.2770 ca        1 FAD      0.711100
     21 N3A         1.0100    1.5490  -11.2990 nb        1 FAD     -0.753200
     22 C4A         1.4620    0.9140  -10.2230 ca        1 FAD      0.477500
     23 N1         -1.9330    0.3600    8.3210 nc        1 FAD     -0.730600
     24 C2         -2.8020    1.0330    9.0700 c         1 FAD      0.845900
     25 O2         -3.9700    1.0430    8.7210 o         1 FAD     -0.600200
     26 N3         -2.4740    1.7010   10.1850 n         1 FAD     -0.617500
     27 C4         -1.1970    1.7340   10.6340 c         1 FAD      0.637600
     28 O4         -0.8970    2.3400   11.6440 o         1 FAD     -0.573300
     29 C4X        -0.1840    1.0030    9.8420 cd        1 FAD      0.246300
     30 N5          1.0780    0.9680   10.1850 ne        1 FAD     -0.437800
     31 C5X         1.9690    0.2950    9.4460 ca        1 FAD      0.044100
     32 C6          3.3240    0.2700    9.8330 ca        1 FAD     -0.026100
     33 C7          4.2320   -0.4120    9.0820 ca        1 FAD     -0.106000
     34 C7M         5.6790   -0.4340    9.5020 c3        1 FAD     -0.054700
     35 C8          3.8410   -1.0850    7.9300 ca        1 FAD      0.001000
     36 C8M         4.8660   -1.8320    7.1160 c3        1 FAD     -0.072400
     37 C9          2.5230   -1.0820    7.5290 ca        1 FAD     -0.179900
     38 C9A         1.5720   -0.3930    8.2780 ca        1 FAD      0.170500
     39 N10         0.2530   -0.3820    7.8770 nh        1 FAD     -0.535600
     40 C10        -0.6490    0.3010    8.6340 cd        1 FAD      0.619700
     41 C1'        -0.1680   -1.0930    6.6680 c3        1 FAD      0.160100
     42 C2'        -0.0700   -0.1530    5.4640 c3        1 FAD      0.100700
     43 O2'        -0.9190    0.9770    5.6730 oh        1 FAD     -0.561000
     44 C3'        -0.5110   -0.8950    4.2010 c3        1 FAD      0.066100
     45 O3'         0.3370   -2.0260    3.9920 oh        1 FAD     -0.584300
     46 C4'        -0.4130    0.0440    2.9970 c3        1 FAD      0.115400
     47 O4'        -1.2620    1.1740    3.2060 oh        1 FAD     -0.552000
     48 C5'        -0.8540   -0.6970    1.7340 c3        1 FAD      0.111600
     49 O5'        -0.7630    0.1790    0.6100 os        1 FAD     -0.574200
     50 P          -1.2390   -0.6620   -0.6770 p5        1 FAD      1.746300
     51 O1P        -0.3540   -1.8350   -0.8530 o         1 FAD     -0.808200
     52 O2P        -2.7540   -1.1600   -0.4620 oh        1 FAD     -0.787400
     53 O3P        -1.1610    0.2700   -1.9870 os        1 FAD     -0.738400
     54 HOA2        0.2120   -1.5640   -3.5310 ho        1 FAD      0.495900
     55 H51A       -1.3740   -1.4680   -5.7120 h1        1 FAD      0.046000
     56 H52A       -3.0520   -0.9420   -5.4370 h1        1 FAD      0.077300
     57 H4B        -2.6590    1.0410   -6.8900 h1        1 FAD      0.104000
     58 H3B        -2.6740   -1.7480   -7.7440 h1        1 FAD      0.060300
     59 HO3A       -3.8450   -0.7820   -9.4900 ho        1 FAD      0.423700
     60 H2B        -0.6530   -1.6300   -8.9440 h1        1 FAD      0.066000
     61 HO2A       -2.1900   -1.5010  -10.6360 ho        1 FAD      0.413400
     62 H1B        -0.9780    1.4160   -9.1500 h2        1 FAD      0.122400
     63 H8A         1.7540   -0.5770   -7.3540 h5        1 FAD      0.083500
     64 H61A        5.5820    0.9600  -11.9220 hn        1 FAD      0.442100
     65 H62A        5.4030    0.2390  -10.4150 hn        1 FAD      0.449400
     66 H2A         1.4270    2.3910  -13.1390 h5        1 FAD      0.063200
     67 HN3        -3.1640    2.1690   10.6790 hn        1 FAD      0.349000
     68 H6          3.6410    0.7920   10.7230 ha        1 FAD      0.167200
     69 HM71        5.8530   -1.2850   10.1620 hc        1 FAD      0.053100
     70 HM72        6.3130   -0.5230    8.6200 hc        1 FAD      0.050800
     71 HM73        5.9190    0.4880   10.0300 hc        1 FAD      0.052300
     72 HM81        5.2850   -1.1670    6.3610 hc        1 FAD      0.058900
     73 HM82        5.6620   -2.1850    7.7720 hc        1 FAD      0.059000
     74 HM83        4.3930   -2.6840    6.6280 hc        1 FAD      0.049300
     75 H9          2.2280   -1.6090    6.6340 ha        1 FAD      0.149400
     76 H1'1        0.4780   -1.9550    6.5080 h1        1 FAD      0.083900
     77 H1'2       -1.1980   -1.4280    6.7840 h1        1 FAD      0.108800
     78 H2'         0.9590    0.1820    5.3480 h1        1 FAD      0.078100
     79 HO2'       -1.8190    0.6370    5.7710 ho        1 FAD      0.418900
     80 H3'        -1.5410   -1.2310    4.3170 h1        1 FAD      0.085400
     81 HO3'        1.2370   -1.6860    3.8940 ho        1 FAD      0.405800
     82 H4'         0.6160    0.3790    2.8810 h1        1 FAD      0.093400
     83 HO4'       -2.1620    0.8340    3.3040 ho        1 FAD      0.394300
     84 H5'1       -0.2070   -1.5600    1.5750 h1        1 FAD      0.093500
     85 H5'2       -1.8840   -1.0330    1.8500 h1        1 FAD      0.056100
     86 HOP2       -3.2960   -0.3670   -0.3510 ho        1 FAD      0.498700
@<TRIPOS>BOND
     1    1    2 2   
     2    1    3 1   
     3    1    4 1   
     4    1   53 1   
     5    3   54 1   
     6    4    5 1   
     7    5    6 1   
     8    5   55 1   
     9    5   56 1   
    10    6    7 1   
    11    6    8 1   
    12    6   57 1   
    13    7   12 1   
    14    8    9 1   
    15    8   10 1   
    16    8   58 1   
    17    9   59 1   
    18   10   11 1   
    19   10   12 1   
    20   10   60 1   
    21   11   61 1   
    22   12   13 1   
    23   12   62 1   
    24   13   14 1   
    25   13   22 1   
    26   14   15 2   
    27   14   63 1   
    28   15   16 1   
    29   16   17 ar  
    30   16   22 ar  
    31   17   18 1   
    32   17   19 ar  
    33   18   64 1   
    34   18   65 1   
    35   19   20 ar  
    36   20   21 ar  
    37   20   66 1   
    38   21   22 ar  
    39   23   24 1   
    40   23   40 2   
    41   24   25 2   
    42   24   26 1   
    43   26   27 1   
    44   26   67 1   
    45   27   28 2   
    46   27   29 1   
    47   29   30 2   
    48   29   40 1   
    49   30   31 1   
    50   31   32 ar  
    51   31   38 ar  
    52   32   33 ar  
    53   32   68 1   
    54   33   34 1   
    55   33   35 ar  
    56   34   69 1   
    57   34   70 1   
    58   34   71 1   
    59   35   36 1   
    60   35   37 ar  
    61   36   72 1   
    62   36   73 1   
    63   36   74 1   
    64   37   38 ar  
    65   37   75 1   
    66   38   39 1   
    67   39   40 1   
    68   39   41 1   
    69   41   42 1   
    70   41   76 1   
    71   41   77 1   
    72   42   43 1   
    73   42   44 1   
    74   42   78 1   
    75   43   79 1   
    76   44   45 1   
    77   44   46 1   
    78   44   80 1   
    79   45   81 1   
    80   46   47 1   
    81   46   48 1   
    82   46   82 1   
    83   47   83 1   
    84   48   49 1   
    85   48   84 1   
    86   48   85 1   
    87   49   50 1   
    88   50   51 2   
    89   50   52 1   
    90   50   53 1   
    91   52   86 1   
@<TRIPOS>SUBSTRUCTURE
     1 FAD         1 TEMP              0 ****  ****    0 ROOT
