@<TRIPOS>MOLECULE
FUC  Alpha-L-Fucose.  C6 H12 O5.
   23    23     1     0     0
SMALL
bcc via mopac
****
Fucose from PDBeChem: antechamber -fi pdb -fo mol2 -i fuc.pdb -o fuc.mol2 -c bcc
@<TRIPOS>ATOM
      1 C1          1.4100    0.4680   -0.4100 c3        1 FUC      0.306400
      2 C2          0.1200    0.5130   -1.2330 c3        1 FUC      0.095200
      3 C3         -0.8310   -0.5760   -0.7280 c3        1 FUC      0.123100
      4 C4         -1.0160   -0.4020    0.7830 c3        1 FUC      0.115200
      5 C5          0.3590   -0.3790    1.4540 c3        1 FUC      0.106000
      6 C6          0.1850   -0.2410    2.9670 c3        1 FUC     -0.098700
      7 O1          2.0070   -0.8230   -0.5350 oh        1 FUC     -0.643700
      8 O2          0.4240    0.2840   -2.6100 oh        1 FUC     -0.592600
      9 O3         -2.0940   -0.4520   -1.3850 oh        1 FUC     -0.584100
     10 O4         -1.7000    0.8240    1.0440 oh        1 FUC     -0.578500
     11 O5          1.1160    0.7240    0.9610 os        1 FUC     -0.436700
     12 H1          2.1010    1.2250   -0.7800 h2        1 FUC      0.085000
     13 H2         -0.3500    1.4890   -1.1210 h1        1 FUC      0.116400
     14 H3         -0.4060   -1.5580   -0.9350 h1        1 FUC      0.053400
     15 H4         -1.5980   -1.2350    1.1780 h1        1 FUC      0.058500
     16 H5          0.8860   -1.3070    1.2320 h1        1 FUC      0.056400
     17 H61         1.1640   -0.2260    3.4460 hc        1 FUC      0.054300
     18 H62        -0.3410    0.6860    3.1900 hc        1 FUC      0.052100
     19 H63        -0.3910   -1.0850    3.3450 hc        1 FUC      0.044500
     20 HO1         2.8180   -0.8080   -0.0080 ho        1 FUC      0.425700
     21 HO2         1.0290    0.9860   -2.8840 ho        1 FUC      0.420200
     22 HO3        -1.9280   -0.5550   -2.3320 ho        1 FUC      0.419000
     23 HO4        -1.7940    0.8930    2.0040 ho        1 FUC      0.403000
@<TRIPOS>BOND
     1    1    2 1   
     2    1    7 1   
     3    1   11 1   
     4    1   12 1   
     5    2    3 1   
     6    2    8 1   
     7    2   13 1   
     8    3    4 1   
     9    3    9 1   
    10    3   14 1   
    11    4    5 1   
    12    4   10 1   
    13    4   15 1   
    14    5    6 1   
    15    5   11 1   
    16    5   16 1   
    17    6   17 1   
    18    6   18 1   
    19    6   19 1   
    20    7   20 1   
    21    8   21 1   
    22    9   22 1   
    23   10   23 1   
@<TRIPOS>SUBSTRUCTURE
     1 FUC         1 TEMP              0 ****  ****    0 ROOT
