@<TRIPOS>MOLECULE
GOL  GLYCEROL.  C3 H8 O3. 
   14    13     1     0     0
SMALL
bcc via mopac
****
From PDBeChem: antechamber -fi pdb -fo mol2 -i GOL.pdb -o gol.mol2 -c bcc
@<TRIPOS>ATOM
      1 C1          0.6950    0.2420    1.2490 c3        1 GOL      0.099400
      2 O1          0.0290   -0.2430    2.4160 oh        1 GOL     -0.591000
      3 C2         -0.0170   -0.2780    0.0000 c3        1 GOL      0.137100
      4 O2         -1.3720    0.1780    0.0000 oh        1 GOL     -0.582000
      5 C3          0.6950    0.2420   -1.2490 c3        1 GOL      0.095100
      6 O3          0.0290   -0.2430   -2.4160 oh        1 GOL     -0.600600
      7 H11         0.6790    1.3320    1.2490 h1        1 GOL      0.017700
      8 H12         1.7280   -0.1050    1.2490 h1        1 GOL      0.052900
      9 HO1         0.5090    0.1060    3.1780 ho        1 GOL      0.400500
     10 H2         -0.0010   -1.3680    0.0000 h1        1 GOL      0.105600
     11 HO2        -1.3410    1.1440    0.0000 ho        1 GOL      0.396600
     12 H31         0.6790    1.3320   -1.2490 h1        1 GOL      0.042700
     13 H32         1.7280   -0.1050   -1.2490 h1        1 GOL      0.020500
     14 HO3         0.5090    0.1060   -3.1780 ho        1 GOL      0.405400
@<TRIPOS>BOND
     1    1    2 1   
     2    1    3 1   
     3    1    7 1   
     4    1    8 1   
     5    2    9 1   
     6    3    4 1   
     7    3    5 1   
     8    3   10 1   
     9    4   11 1   
    10    5    6 1   
    11    5   12 1   
    12    5   13 1   
    13    6   14 1   
@<TRIPOS>SUBSTRUCTURE
     1 GOL         1 TEMP              0 ****  ****    0 ROOT
