@<TRIPOS>MOLECULE
H4B  5,6,7,8-TETRAHYDROBIOPTERIN.  C9 H15 N5 O3. 
   32    33     1     0     0
SMALL
bcc via mopac
****
From PDBeChem: antechamber -fi pdb -fo mol2 -i H4B.pdb -o h4b.mol2 -c bcc
@<TRIPOS>ATOM
      1 N1         -1.2070    0.5640   -2.2160 nc        1 H4B     -0.693900
      2 C2         -0.2130    0.6360   -3.0750 cd        1 H4B      0.659600
      3 N2         -0.4060    1.2850   -4.2690 nh        1 H4B     -0.884300
      4 N3          1.0000    0.0820   -2.8090 n         1 H4B     -0.491600
      5 C4          1.2110   -0.5620   -1.6410 c         1 H4B      0.712100
      6 O4          2.2970   -1.0640   -1.3920 o         1 H4B     -0.635500
      7 C4A         0.1580   -0.6420   -0.7230 cd        1 H4B     -0.145100
      8 C8A        -1.0590   -0.0590   -1.0410 cc        1 H4B      0.344800
      9 N5          0.3260   -1.3060    0.5120 nh        1 H4B     -0.666800
     10 N8         -2.1120   -0.1250   -0.1420 nh        1 H4B     -0.713000
     11 C6         -0.6620   -1.0660    1.5750 c3        1 H4B      0.157200
     12 C7         -2.0610   -1.1130    0.9440 c3        1 H4B      0.186300
     13 C9         -0.4230    0.3080    2.2020 c3        1 H4B      0.071900
     14 O9         -1.3960    0.5420    3.2230 oh        1 H4B     -0.584900
     15 C10         0.9780    0.3530    2.8140 c3        1 H4B      0.102600
     16 C11         1.2170    1.7280    3.4410 c3        1 H4B     -0.125100
     17 O10         1.9510    0.1190    1.7930 oh        1 H4B     -0.590600
     18 HN21       -1.2670    1.6830   -4.4710 hn        1 H4B      0.422000
     19 HN22        0.3180    1.3450   -4.9110 hn        1 H4B      0.400800
     20 HN3         1.7170    0.1510   -3.4600 hn        1 H4B      0.337500
     21 HN5         1.0740   -1.9070    0.6550 hn        1 H4B      0.422200
     22 HN8        -2.8720    0.4710   -0.2290 hn        1 H4B      0.422300
     23 H6         -0.5760   -1.8390    2.3390 h1        1 H4B      0.061700
     24 H71        -2.2510   -2.1090    0.5450 h1        1 H4B      0.034500
     25 H72        -2.8110   -0.8700    1.6970 h1        1 H4B      0.078800
     26 H9         -0.5090    1.0770    1.4350 h1        1 H4B      0.094800
     27 HO9        -1.2850   -0.1580    3.8800 ho        1 H4B      0.395600
     28 H10         1.0650   -0.4150    3.5810 h1        1 H4B      0.073600
     29 H111        2.2160    1.7600    3.8760 hc        1 H4B      0.051600
     30 H112        1.1300    2.4970    2.6730 hc        1 H4B      0.043500
     31 H113        0.4750    1.9060    4.2190 hc        1 H4B      0.051200
     32 HO0         1.8400    0.8200    1.1360 ho        1 H4B      0.406100
@<TRIPOS>BOND
     1    1    2 2   
     2    1    8 1   
     3    2    3 1   
     4    2    4 1   
     5    3   18 1   
     6    3   19 1   
     7    4    5 1   
     8    4   20 1   
     9    5    6 2   
    10    5    7 1   
    11    7    8 2   
    12    7    9 1   
    13    8   10 1   
    14    9   11 1   
    15    9   21 1   
    16   10   12 1   
    17   10   22 1   
    18   11   12 1   
    19   11   13 1   
    20   11   23 1   
    21   12   24 1   
    22   12   25 1   
    23   13   14 1   
    24   13   15 1   
    25   13   26 1   
    26   14   27 1   
    27   15   16 1   
    28   15   17 1   
    29   15   28 1   
    30   16   29 1   
    31   16   30 1   
    32   16   31 1   
    33   17   32 1   
@<TRIPOS>SUBSTRUCTURE
     1 H4B         1 TEMP              0 ****  ****    0 ROOT
