@<TRIPOS>MOLECULE
IPA  ISOPROPYL ALCOHOL.  C3 H8 O. 
   12    11     1     0     0
SMALL
bcc via mopac
****
From PDBeChem: antechamber -fi pdb -fo mol2 -i IPA.pdb -o ipa.mol2 -c bcc
@<TRIPOS>ATOM
      1 C1         -0.6220    1.2980    0.1110 c3        1 IPA     -0.131700
      2 C2          0.0100   -0.0070   -0.3790 c3        1 IPA      0.138600
      3 C3          1.4590   -0.0850    0.1050 c3        1 IPA     -0.091100
      4 O2         -0.7260   -1.1160    0.1380 oh        1 IPA     -0.601800
      5 H11        -0.0600    2.1450   -0.2840 hc        1 IPA      0.044700
      6 H12        -1.6540    1.3540   -0.2340 hc        1 IPA      0.032700
      7 H13        -0.6010    1.3250    1.2000 hc        1 IPA      0.049000
      8 H2         -0.0110   -0.0330   -1.4690 h1        1 IPA      0.028700
      9 H31         1.4800   -0.0580    1.1950 hc        1 IPA      0.047400
     10 H32         1.9090   -1.0140   -0.2440 hc        1 IPA      0.048800
     11 H33         2.0210    0.7620   -0.2890 hc        1 IPA      0.037300
     12 HO2        -1.6550   -1.1310   -0.1290 ho        1 IPA      0.397300
@<TRIPOS>BOND
     1    1    2 1   
     2    1    5 1   
     3    1    6 1   
     4    1    7 1   
     5    2    3 1   
     6    2    4 1   
     7    2    8 1   
     8    3    9 1   
     9    3   10 1   
    10    3   11 1   
    11    4   12 1   
@<TRIPOS>SUBSTRUCTURE
     1 IPA         1 TEMP              0 ****  ****    0 ROOT
