@<TRIPOS>MOLECULE
MAN Alpha-D-Mannose.  C6 H12 O6.
   24    24     1     0     0
SMALL
bcc via mopac
****
Mannose from PDBeChem: antechamber -fi pdb -fo mol2 -i man.pdb -o man.mol2 -c bcc
@<TRIPOS>ATOM
      1 C1         -1.6920   -0.1560   -0.3160 c3        1 MAN      0.305000
      2 C2         -0.8780    0.0910   -1.5880 c3        1 MAN      0.093800
      3 C3          0.5350   -0.4670   -1.3910 c3        1 MAN      0.075200
      4 C4          1.1260    0.1340   -0.1110 c3        1 MAN      0.089400
      5 C5          0.1600   -0.1170    1.0480 c3        1 MAN      0.100700
      6 C6          0.7570    0.4480    2.3390 c3        1 MAN      0.140800
      7 O1         -1.7350   -1.5580   -0.0460 oh        1 MAN     -0.614500
      8 O2         -0.8080    1.4940   -1.8450 oh        1 MAN     -0.590700
      9 O3          1.3500   -0.1130   -2.5110 oh        1 MAN     -0.593000
     10 O4          2.3840   -0.4820    0.1700 oh        1 MAN     -0.591300
     11 O5         -1.0870    0.5200    0.7840 os        1 MAN     -0.468500
     12 O6         -0.1420    0.2110    3.4230 oh        1 MAN     -0.593100
     13 H1         -2.7070    0.2160   -0.4570 h2        1 MAN      0.086600
     14 H2         -1.3540   -0.4100   -2.4300 h1        1 MAN      0.112900
     15 H3          0.4910   -1.5520   -1.3000 h1        1 MAN      0.110600
     16 H4          1.2670    1.2070   -0.2440 h1        1 MAN      0.039900
     17 H5          0.0020   -1.1890    1.1620 h1        1 MAN      0.082600
     18 H61         0.9150    1.5210    2.2260 h1        1 MAN      0.032700
     19 H62         1.7100   -0.0390    2.5430 h1        1 MAN      0.094500
     20 HO1        -2.2600   -1.6720    0.7570 ho        1 MAN      0.426400
     21 HO2        -1.7170    1.8040   -1.9550 ho        1 MAN      0.411300
     22 HO3         0.9340   -0.5010   -3.2930 ho        1 MAN      0.417200
     23 HO4         2.9580   -0.3050   -0.5870 ho        1 MAN      0.424900
     24 HO6         0.2700    0.5820    4.2150 ho        1 MAN      0.406900
@<TRIPOS>BOND
     1    1    2 1   
     2    1    7 1   
     3    1   11 1   
     4    1   13 1   
     5    2    3 1   
     6    2    8 1   
     7    2   14 1   
     8    3    4 1   
     9    3    9 1   
    10    3   15 1   
    11    4    5 1   
    12    4   10 1   
    13    4   16 1   
    14    5    6 1   
    15    5   11 1   
    16    5   17 1   
    17    6   12 1   
    18    6   18 1   
    19    6   19 1   
    20    7   20 1   
    21    8   21 1   
    22    9   22 1   
    23   10   23 1   
    24   12   24 1   
@<TRIPOS>SUBSTRUCTURE
     1 MAN         1 TEMP              0 ****  ****    0 ROOT
