@<TRIPOS>MOLECULE
MRD  (4R)-2-METHYLPENTANE-2,4-DIOL.  C6 H14 O2. 
   22    21     1     0     0
SMALL
bcc via mopac
****
From PDBeChem: antechamber -fi pdb -fo mol2 -i MRD.pdb -o mrd.mol2 -c bcc
@<TRIPOS>ATOM
      1 C1         -0.6830   -0.7730   -2.2950 c3        1 MRD     -0.123300
      2 C2         -0.0880   -0.0080   -1.1110 c3        1 MRD      0.147500
      3 O2          1.3160   -0.2610   -1.0380 oh        1 MRD     -0.607900
      4 CM         -0.3270    1.4900   -1.3000 c3        1 MRD     -0.086300
      5 C3         -0.7580   -0.4720    0.1840 c3        1 MRD     -0.143300
      6 C4         -0.1630    0.2930    1.3670 c3        1 MRD      0.150000
      7 O4          1.2410    0.0400    1.4410 oh        1 MRD     -0.611800
      8 C5         -0.8330   -0.1700    2.6630 c3        1 MRD     -0.093900
      9 H1C1       -0.2060   -0.4430   -3.2170 hc        1 MRD      0.051100
     10 H1C2       -0.5130   -1.8410   -2.1590 hc        1 MRD      0.036400
     11 H1C3       -1.7540   -0.5800   -2.3500 hc        1 MRD      0.044600
     12 H2          1.4220   -1.2150   -0.9180 ho        1 MRD      0.407200
     13 HMC1       -1.3980    1.6830   -1.3560 hc        1 MRD      0.040900
     14 HMC2        0.0960    2.0350   -0.4570 hc        1 MRD      0.047100
     15 HMC3        0.1490    1.8200   -2.2230 hc        1 MRD      0.049600
     16 H3C1       -0.5880   -1.5400    0.3190 hc        1 MRD      0.054700
     17 H3C2       -1.8290   -0.2790    0.1280 hc        1 MRD      0.055900
     18 H4         -0.3330    1.3610    1.2320 h1        1 MRD      0.032800
     19 HA          1.3470   -0.9130    1.5600 ho        1 MRD      0.417500
     20 H5C1       -0.4090    0.3740    3.5060 hc        1 MRD      0.049800
     21 H5C2       -1.9040    0.0220    2.6070 hc        1 MRD      0.035300
     22 H5C3       -0.6630   -1.2380    2.7980 hc        1 MRD      0.046000
@<TRIPOS>BOND
     1    1    2 1   
     2    1    9 1   
     3    1   10 1   
     4    1   11 1   
     5    2    3 1   
     6    2    4 1   
     7    2    5 1   
     8    3   12 1   
     9    4   13 1   
    10    4   14 1   
    11    4   15 1   
    12    5    6 1   
    13    5   16 1   
    14    5   17 1   
    15    6    7 1   
    16    6    8 1   
    17    6   18 1   
    18    7   19 1   
    19    8   20 1   
    20    8   21 1   
    21    8   22 1   
@<TRIPOS>SUBSTRUCTURE
     1 MRD         1 TEMP              0 ****  ****    0 ROOT
