@<TRIPOS>MOLECULE
MYR  MYRISTIC ACID.  C14 H28 O2. 
   44    43     1     0     0
SMALL
bcc via mopac
****
From PDBeChem: antechamber -fi pdb -fo mol2 -i MYR.pdb -o myr.mol2 -c bcc
@<TRIPOS>ATOM
      1 C1          0.1210    0.0000   -6.9630 c         1 MYR      0.634200
      2 O1          1.3270    0.0000   -6.8880 o         1 MYR     -0.549700
      3 O2         -0.4760    0.0000   -8.1640 oh        1 MYR     -0.613800
      4 C2         -0.7110    0.0000   -5.7060 c3        1 MYR     -0.126500
      5 C3          0.2090    0.0000   -4.4840 c3        1 MYR     -0.079600
      6 C4         -0.6360    0.0000   -3.2090 c3        1 MYR     -0.078900
      7 C5          0.2840    0.0000   -1.9870 c3        1 MYR     -0.078900
      8 C6         -0.5600    0.0000   -0.7120 c3        1 MYR     -0.079100
      9 C7          0.3590    0.0000    0.5090 c3        1 MYR     -0.079100
     10 C8         -0.4850    0.0000    1.7850 c3        1 MYR     -0.078900
     11 C9          0.4340    0.0000    3.0070 c3        1 MYR     -0.079000
     12 C10        -0.4100    0.0000    4.2820 c3        1 MYR     -0.078800
     13 C11         0.5100    0.0000    5.5040 c3        1 MYR     -0.079100
     14 C12        -0.3350    0.0000    6.7790 c3        1 MYR     -0.079300
     15 C13         0.5850    0.0000    8.0010 c3        1 MYR     -0.080100
     16 C14        -0.2590    0.0000    9.2770 c3        1 MYR     -0.092600
     17 HO2         0.0570    0.0000   -8.9700 ho        1 MYR      0.443900
     18 H21        -1.3400   -0.8900   -5.6880 hc        1 MYR      0.080600
     19 H22        -1.3400    0.8900   -5.6880 hc        1 MYR      0.080500
     20 H31         0.8380    0.8900   -4.5030 hc        1 MYR      0.058200
     21 H32         0.8380   -0.8900   -4.5030 hc        1 MYR      0.058800
     22 H41        -1.2650   -0.8900   -3.1900 hc        1 MYR      0.040500
     23 H42        -1.2650    0.8900   -3.1900 hc        1 MYR      0.040400
     24 H51         0.9130    0.8900   -2.0060 hc        1 MYR      0.043200
     25 H52         0.9130   -0.8900   -2.0060 hc        1 MYR      0.043200
     26 H61        -1.1890   -0.8900   -0.6930 hc        1 MYR      0.039700
     27 H62        -1.1890    0.8900   -0.6930 hc        1 MYR      0.039600
     28 H71         0.9880    0.8900    0.4900 hc        1 MYR      0.040500
     29 H72         0.9880   -0.8900    0.4900 hc        1 MYR      0.040600
     30 H81        -1.1140   -0.8900    1.8040 hc        1 MYR      0.039500
     31 H82        -1.1140    0.8900    1.8040 hc        1 MYR      0.039500
     32 H91         1.0630    0.8900    2.9880 hc        1 MYR      0.039800
     33 H92         1.0630   -0.8900    2.9880 hc        1 MYR      0.039900
     34 H101       -1.0390   -0.8900    4.3010 hc        1 MYR      0.039400
     35 H102       -1.0390    0.8900    4.3010 hc        1 MYR      0.039400
     36 H111        1.1390    0.8900    5.4850 hc        1 MYR      0.039500
     37 H112        1.1390   -0.8900    5.4850 hc        1 MYR      0.039500
     38 H121       -0.9640   -0.8900    6.7980 hc        1 MYR      0.039400
     39 H122       -0.9640    0.8900    6.7980 hc        1 MYR      0.039300
     40 H131        1.2140    0.8900    7.9820 hc        1 MYR      0.038400
     41 H132        1.2140   -0.8900    7.9820 hc        1 MYR      0.038500
     42 H141        0.3950    0.0000   10.1470 hc        1 MYR      0.032500
     43 H142       -0.8890    0.8900    9.2960 hc        1 MYR      0.032400
     44 H143       -0.8890   -0.8900    9.2960 hc        1 MYR      0.032400
@<TRIPOS>BOND
     1    1    2 2   
     2    1    3 1   
     3    1    4 1   
     4    3   17 1   
     5    4    5 1   
     6    4   18 1   
     7    4   19 1   
     8    5    6 1   
     9    5   20 1   
    10    5   21 1   
    11    6    7 1   
    12    6   22 1   
    13    6   23 1   
    14    7    8 1   
    15    7   24 1   
    16    7   25 1   
    17    8    9 1   
    18    8   26 1   
    19    8   27 1   
    20    9   10 1   
    21    9   28 1   
    22    9   29 1   
    23   10   11 1   
    24   10   30 1   
    25   10   31 1   
    26   11   12 1   
    27   11   32 1   
    28   11   33 1   
    29   12   13 1   
    30   12   34 1   
    31   12   35 1   
    32   13   14 1   
    33   13   36 1   
    34   13   37 1   
    35   14   15 1   
    36   14   38 1   
    37   14   39 1   
    38   15   16 1   
    39   15   40 1   
    40   15   41 1   
    41   16   42 1   
    42   16   43 1   
    43   16   44 1   
@<TRIPOS>SUBSTRUCTURE
     1 MYR         1 TEMP              0 ****  ****    0 ROOT
