@<TRIPOS>MOLECULE
NAG  N-Acetyl-D-Glucosamine.  C8 H15 N O6.
   30    30     1     0     0
SMALL
bcc via mopac
****
N-Acetyl-D-Glucosamine from PDBeChem: antechamber -fi pdb -fo mol2 -i nag.pdb -o nag.mol2 -c bcc
@<TRIPOS>ATOM
      1 C1          1.0770   -0.3850    0.1210 c3        1 NAG      0.332600
      2 C2         -0.2080    0.1120    0.7850 c3        1 NAG      0.074500
      3 C3         -1.4040   -0.2540   -0.1000 c3        1 NAG      0.136900
      4 C4         -1.1490    0.2800   -1.5140 c3        1 NAG      0.070000
      5 C5          0.2080   -0.2300   -2.0040 c3        1 NAG      0.102400
      6 C6          0.4550    0.2730   -3.4280 c3        1 NAG      0.136200
      7 C7          0.1610    0.0670    3.1930 c         1 NAG      0.675800
      8 C8          0.0060   -0.5830    4.5430 c3        1 NAG     -0.174600
      9 N2         -0.3590   -0.5200    2.0970 n         1 NAG     -0.562600
     10 O1          2.1940   -0.0730    0.9550 oh        1 NAG     -0.589300
     11 O3         -2.5960    0.3320    0.4250 oh        1 NAG     -0.584600
     12 O4         -2.1770   -0.1770   -2.3940 oh        1 NAG     -0.601900
     13 O5          1.2420    0.2470   -1.1460 os        1 NAG     -0.451000
     14 O6          1.7190   -0.2070   -3.8900 oh        1 NAG     -0.588300
     15 O7          0.7540    1.1200    3.0920 o         1 NAG     -0.594100
     16 H1          1.0190   -1.4650   -0.0170 h2        1 NAG      0.049700
     17 H2         -0.1610    1.1940    0.9050 h1        1 NAG      0.113000
     18 H3         -1.5140   -1.3380   -0.1330 h1        1 NAG      0.046200
     19 H4         -1.1430    1.3690   -1.4950 h1        1 NAG      0.065700
     20 H5          0.2080   -1.3200   -2.0010 h1        1 NAG      0.073600
     21 H61        -0.3340   -0.0900   -4.0850 h1        1 NAG      0.043800
     22 H62         0.4580    1.3630   -3.4320 h1        1 NAG      0.046100
     23 H81         0.4880    0.0330    5.3010 hc        1 NAG      0.076700
     24 H82        -1.0520   -0.6860    4.7780 hc        1 NAG      0.060900
     25 H83         0.4720   -1.5690    4.5270 hc        1 NAG      0.059300
     26 HN2        -0.8330   -1.3630    2.1780 hn        1 NAG      0.308100
     27 HO1         2.9820   -0.4020    0.5020 ho        1 NAG      0.434200
     28 HO3        -3.3170    0.0840   -0.1700 ho        1 NAG      0.419200
     29 HO4        -1.9740    0.1760   -3.2700 ho        1 NAG      0.410900
     30 HO6         1.8350    0.1310   -4.7880 ho        1 NAG      0.410700
@<TRIPOS>BOND
     1    1    2 1   
     2    1   10 1   
     3    1   13 1   
     4    1   16 1   
     5    2    3 1   
     6    2    9 1   
     7    2   17 1   
     8    3    4 1   
     9    3   11 1   
    10    3   18 1   
    11    4    5 1   
    12    4   12 1   
    13    4   19 1   
    14    5    6 1   
    15    5   13 1   
    16    5   20 1   
    17    6   14 1   
    18    6   21 1   
    19    6   22 1   
    20    7    8 1   
    21    7    9 1   
    22    7   15 2   
    23    8   23 1   
    24    8   24 1   
    25    8   25 1   
    26    9   26 1   
    27   10   27 1   
    28   11   28 1   
    29   12   29 1   
    30   14   30 1   
@<TRIPOS>SUBSTRUCTURE
     1 NAG         1 TEMP              0 ****  ****    0 ROOT
