@<TRIPOS>MOLECULE
NDP  NADPH DIHYDRO-NICOTINAMIDE-ADENINE-DINUCLEOTIDE PHOSPHATE.  C21 H30 N7 O17 P3. 
   78    82     1     0     0
SMALL
bcc via mopac
****
From PDBeChem: antechamber -fi pdb -fo mol2 -i NDP.pdb -o ndp.mol2 -c bcc
@<TRIPOS>ATOM
      1 PA         -1.2750    0.0430   -0.0380 p5        1 NDP      1.817400
      2 O1A        -1.7100   -1.2930   -0.5000 o         1 NDP     -0.819100
      3 O2A        -2.5650    0.9150    0.3710 oh        1 NDP     -0.767200
      4 O5B        -0.4790    0.7870   -1.2230 os        1 NDP     -0.603400
      5 C5B        -1.3850    0.9010   -2.3220 c3        1 NDP      0.172300
      6 C4B        -0.6870    1.6030   -3.4890 c3        1 NDP      0.089800
      7 O4B         0.4390    0.8240   -3.9240 os        1 NDP     -0.425000
      8 C3B        -1.6540    1.7230   -4.6820 c3        1 NDP      0.102100
      9 O3B        -1.8630    3.0940   -5.0290 oh        1 NDP     -0.570100
     10 C2B        -0.9270    0.9770   -5.8320 c3        1 NDP      0.171700
     11 O2B        -1.0730    1.6800   -7.0680 os        1 NDP     -0.586800
     12 C1B         0.5460    1.0010   -5.3530 c3        1 NDP      0.248100
     13 N9A         1.3040   -0.0990   -5.9540 na        1 NDP     -0.303100
     14 C8A         1.3880   -1.3740   -5.4790 cc        1 NDP      0.426500
     15 N7A         2.1450   -2.0900   -6.2590 nd        1 NDP     -0.533600
     16 C5A         2.5940   -1.3220   -7.2800 ca        1 NDP     -0.230600
     17 C6A         3.4220   -1.5440   -8.3940 ca        1 NDP      0.771000
     18 N6A         3.9760   -2.7910   -8.6270 nh        1 NDP     -0.952300
     19 N1A         3.6590   -0.5300   -9.2190 nb        1 NDP     -0.794900
     20 C2A         3.1340    0.6620   -9.0050 ca        1 NDP      0.692000
     21 N3A         2.3540    0.9160   -7.9760 nb        1 NDP     -0.755000
     22 C4A         2.0560   -0.0370   -7.1000 ca        1 NDP      0.465100
     23 O3         -0.3090   -0.1180    1.2380 os        1 NDP     -0.809300
     24 PN         -1.1650   -0.8650    2.3780 p5        1 NDP      1.802000
     25 O1N        -2.3520   -0.0490    2.7180 o         1 NDP     -0.817900
     26 O2N        -1.6400   -2.3040    1.8350 oh        1 NDP     -0.760900
     27 O5D        -0.2550   -1.0610    3.6920 os        1 NDP     -0.601900
     28 C5D        -1.0660   -1.7260    4.6610 c3        1 NDP      0.179100
     29 C4D        -0.2570   -1.9440    5.9410 c3        1 NDP      0.112100
     30 O4D         0.1500   -0.6760    6.5000 os        1 NDP     -0.418900
     31 C3D        -1.1360   -2.5920    7.0330 c3        1 NDP      0.128900
     32 O3D        -0.9160   -4.0030    7.0810 oh        1 NDP     -0.583600
     33 C2D        -0.6610   -1.9240    8.3450 c3        1 NDP      0.080300
     34 O2D        -0.1360   -2.9030    9.2440 oh        1 NDP     -0.599400
     35 C1D         0.4460   -0.9490    7.8870 c3        1 NDP      0.382600
     36 N1N         0.3940    0.2860    8.6720 nh        1 NDP     -0.548400
     37 C2N         1.4850    0.6820    9.3940 c2        1 NDP      0.136800
     38 C3N         1.5920    1.9520    9.8260 ce        1 NDP     -0.275900
     39 C7N         2.7270    2.3340   10.5800 c         1 NDP      0.684100
     40 O7N         3.5940    1.5170   10.8310 o         1 NDP     -0.641100
     41 N7N         2.8480    3.6020   11.0190 n         1 NDP     -0.674100
     42 C4N         0.5280    2.9700    9.5300 c3        1 NDP      0.021700
     43 C5N        -0.7370    2.3070    9.0750 c2        1 NDP     -0.217800
     44 C6N        -0.7620    1.0530    8.6830 c2        1 NDP      0.031000
     45 P2B        -1.6390    0.6220   -8.1410 p5        1 NDP      1.657600
     46 O1X        -2.9440    0.0990   -7.6770 o         1 NDP     -0.774200
     47 O2X        -1.8290    1.3510   -9.5640 oh        1 NDP     -0.759100
     48 O3X        -0.5970   -0.5940   -8.2960 oh        1 NDP     -0.760400
     49 HOA2       -2.2380    1.7770    0.6650 ho        1 NDP      0.492300
     50 H51A       -1.7030   -0.0930   -2.6350 h1        1 NDP      0.068100
     51 H52A       -2.2560    1.4810   -2.0170 h1        1 NDP      0.055600
     52 H4B        -0.3550    2.5940   -3.1790 h1        1 NDP      0.099000
     53 H3B        -2.6040    1.2390   -4.4540 h1        1 NDP      0.067900
     54 HO3A       -2.3170    3.5050   -4.2810 ho        1 NDP      0.411800
     55 H2B        -1.2900   -0.0460   -5.9240 h1        1 NDP      0.086500
     56 H1B         1.0110    1.9580   -5.5880 h2        1 NDP      0.112400
     57 H8A         0.8980   -1.7370   -4.5880 h5        1 NDP      0.089200
     58 H61A        4.5450   -2.9320   -9.3990 hn        1 NDP      0.446700
     59 H62A        3.7950   -3.5240   -8.0180 hn        1 NDP      0.460200
     60 H2A         3.3540    1.4590   -9.7000 h5        1 NDP      0.048500
     61 H21N       -0.8380   -2.8030    1.6260 ho        1 NDP      0.498500
     62 H51N       -1.3880   -2.6900    4.2670 h1        1 NDP      0.070500
     63 H52N       -1.9410   -1.1150    4.8840 h1        1 NDP      0.042700
     64 H4D         0.6140   -2.5660    5.7370 h1        1 NDP      0.090900
     65 H3D        -2.1890   -2.3770    6.8530 h1        1 NDP      0.076000
     66 HO3N       -1.4890   -4.3520    7.7770 ho        1 NDP      0.435700
     67 H2D        -1.4800   -1.3770    8.8130 h1        1 NDP      0.074500
     68 HO2N       -0.8570   -3.5140    9.4440 ho        1 NDP      0.430300
     69 H1D         1.4260   -1.4170    7.9810 h2        1 NDP      0.091900
     70 H2N         2.2660   -0.0280    9.6190 h4        1 NDP      0.176500
     71 H71N        3.6260    3.8640   11.5350 hn        1 NDP      0.317300
     72 H72N        2.1590    4.2540   10.8150 hn        1 NDP      0.307600
     73 H41N        0.3250    3.5560   10.4260 hc        1 NDP      0.045400
     74 H42N        0.8880    3.6340    8.7430 hc        1 NDP      0.043700
     75 H5N        -1.6560    2.8760    9.0750 ha        1 NDP      0.144600
     76 H6N        -1.6950    0.6140    8.3630 h4        1 NDP      0.145200
     77 HOP2       -2.1690    0.6840  -10.1760 ho        1 NDP      0.489700
     78 HOP3        0.2360   -0.2110   -8.5990 ho        1 NDP      0.492600
@<TRIPOS>BOND
     1    1    2 2   
     2    1    3 1   
     3    1    4 1   
     4    1   23 1   
     5    3   49 1   
     6    4    5 1   
     7    5    6 1   
     8    5   50 1   
     9    5   51 1   
    10    6    7 1   
    11    6    8 1   
    12    6   52 1   
    13    7   12 1   
    14    8    9 1   
    15    8   10 1   
    16    8   53 1   
    17    9   54 1   
    18   10   11 1   
    19   10   12 1   
    20   10   55 1   
    21   11   45 1   
    22   12   13 1   
    23   12   56 1   
    24   13   14 1   
    25   13   22 1   
    26   14   15 2   
    27   14   57 1   
    28   15   16 1   
    29   16   17 ar  
    30   16   22 ar  
    31   17   18 1   
    32   17   19 ar  
    33   18   58 1   
    34   18   59 1   
    35   19   20 ar  
    36   20   21 ar  
    37   20   60 1   
    38   21   22 ar  
    39   23   24 1   
    40   24   25 2   
    41   24   26 1   
    42   24   27 1   
    43   26   61 1   
    44   27   28 1   
    45   28   29 1   
    46   28   62 1   
    47   28   63 1   
    48   29   30 1   
    49   29   31 1   
    50   29   64 1   
    51   30   35 1   
    52   31   32 1   
    53   31   33 1   
    54   31   65 1   
    55   32   66 1   
    56   33   34 1   
    57   33   35 1   
    58   33   67 1   
    59   34   68 1   
    60   35   36 1   
    61   35   69 1   
    62   36   37 1   
    63   36   44 1   
    64   37   38 2   
    65   37   70 1   
    66   38   39 1   
    67   38   42 1   
    68   39   40 2   
    69   39   41 1   
    70   41   71 1   
    71   41   72 1   
    72   42   43 1   
    73   42   73 1   
    74   42   74 1   
    75   43   44 2   
    76   43   75 1   
    77   44   76 1   
    78   45   46 2   
    79   45   47 1   
    80   45   48 1   
    81   47   77 1   
    82   48   78 1   
@<TRIPOS>SUBSTRUCTURE
     1 NDP         1 TEMP              0 ****  ****    0 ROOT
