@<TRIPOS>MOLECULE
P22  ETHYL DIHYDROGEN DIPHOSPHATE.  C2 H8 O7 P2. 
   19    18     1     0     0
SMALL
bcc via mopac
****
From PDBeChem: antechamber -fi pdb -fo mol2 -i P22.pdb -o p22.mol2 -c bcc
@<TRIPOS>ATOM
      1 C6          4.4340    0.5610   -0.2760 c3        1 P22     -0.097100
      2 C7          3.0920    0.0610    0.2640 c3        1 P22      0.157800
      3 O7          2.0560    0.3780   -0.6670 os        1 P22     -0.563700
      4 PA          0.6800   -0.1740   -0.0380 p5        1 P22      1.712900
      5 O1A         0.7390   -1.7800    0.0540 oh        1 P22     -0.769700
      6 O2A         0.4960    0.3920    1.3180 o         1 P22     -0.845000
      7 O3A        -0.5530    0.2660   -0.9750 os        1 P22     -0.710100
      8 PB         -1.8810    0.1720   -0.0700 p5        1 P22      1.751300
      9 O1B        -3.0830    0.9580   -0.7980 oh        1 P22     -0.811700
     10 O2B        -1.6220    0.7830    1.2530 o         1 P22     -0.807100
     11 O3B        -2.2910   -1.3730    0.1240 oh        1 P22     -0.750400
     12 H61         5.2240    0.3180    0.4340 hc        1 P22      0.051300
     13 H62         4.6430    0.0790   -1.2320 hc        1 P22      0.054600
     14 H63         4.3890    1.6410   -0.4160 hc        1 P22      0.060600
     15 H71         3.1370   -1.0190    0.4040 h1        1 P22      0.041900
     16 H72         2.8830    0.5430    1.2190 h1        1 P22      0.056000
     17 H1A         0.8590   -2.1070   -0.8480 ho        1 P22      0.499400
     18 H1B        -3.8580    0.8780   -0.2250 ho        1 P22      0.480300
     19 H3B        -2.4510   -1.7320   -0.7600 ho        1 P22      0.488600
@<TRIPOS>BOND
     1    1    2 1   
     2    1   12 1   
     3    1   13 1   
     4    1   14 1   
     5    2    3 1   
     6    2   15 1   
     7    2   16 1   
     8    3    4 1   
     9    4    5 1   
    10    4    6 2   
    11    4    7 1   
    12    5   17 1   
    13    7    8 1   
    14    8    9 1   
    15    8   10 2   
    16    8   11 1   
    17    9   18 1   
    18   11   19 1   
@<TRIPOS>SUBSTRUCTURE
     1 P22         1 TEMP              0 ****  ****    0 ROOT
