@<TRIPOS>MOLECULE
P25  PENTYL TRIHYDROGEN DIPHOSPHATE.  C5 H14 O7 P2. 
   28    27     1     0     0
SMALL
bcc via mopac
****
From PDBeChem: antechamber -fi pdb -fo mol2 -i P25.pdb -o p25.mol2 -c bcc
@<TRIPOS>ATOM
      1 C4          5.7350    0.2720    0.4450 c3        1 P25     -0.078800
      2 CM4         6.8960    0.1250   -0.5390 c3        1 P25     -0.093400
      3 C5          4.4130    0.0220   -0.2840 c3        1 P25     -0.080900
      4 C6          3.2510    0.1690    0.7010 c3        1 P25     -0.083000
      5 C7          1.9300   -0.0820   -0.0290 c3        1 P25      0.163900
      6 O7          0.8450    0.0560    0.8910 os        1 P25     -0.558500
      7 PA         -0.5070   -0.2190    0.0610 p5        1 P25      1.747600
      8 O1A        -0.5610    0.6880   -1.1080 o         1 P25     -0.898600
      9 O2A        -0.5240   -1.7480   -0.4460 oh        1 P25     -0.776500
     10 O3A        -1.7820    0.0470    1.0070 os        1 P25     -0.700400
     11 PB         -3.0650    0.1490    0.0400 p5        1 P25      1.773800
     12 O1B        -3.0210   -0.9440   -0.9560 o         1 P25     -0.894100
     13 O2B        -4.4090    0.0210    0.9180 oh        1 P25     -0.799500
     14 O3B        -3.0540    1.5690   -0.7200 oh        1 P25     -0.753600
     15 H41         5.8480   -0.4530    1.2510 hc        1 P25      0.041700
     16 H42         5.7350    1.2800    0.8610 hc        1 P25      0.041300
     17 HM41        7.8380    0.3030   -0.0200 hc        1 P25      0.035500
     18 HM42        6.8960   -0.8830   -0.9550 hc        1 P25      0.033800
     19 HM43        6.7830    0.8500   -1.3450 hc        1 P25      0.033400
     20 H51         4.3000    0.7470   -1.0900 hc        1 P25      0.041500
     21 H52         4.4120   -0.9860   -0.6990 hc        1 P25      0.042400
     22 H61         3.3640   -0.5570    1.5070 hc        1 P25      0.060400
     23 H62         3.2520    1.1760    1.1160 hc        1 P25      0.059000
     24 H71         1.8170    0.6440   -0.8350 h1        1 P25      0.044600
     25 H72         1.9290   -1.0890   -0.4440 h1        1 P25      0.054700
     26 H2A        -0.4880   -2.3040    0.3440 ho        1 P25      0.526200
     27 H2B        -5.1520    0.0870    0.3020 ho        1 P25      0.524900
     28 H3B        -3.0840    2.2520   -0.0360 ho        1 P25      0.492700
@<TRIPOS>BOND
     1    1    2 1   
     2    1    3 1   
     3    1   15 1   
     4    1   16 1   
     5    2   17 1   
     6    2   18 1   
     7    2   19 1   
     8    3    4 1   
     9    3   20 1   
    10    3   21 1   
    11    4    5 1   
    12    4   22 1   
    13    4   23 1   
    14    5    6 1   
    15    5   24 1   
    16    5   25 1   
    17    6    7 1   
    18    7    8 2   
    19    7    9 1   
    20    7   10 1   
    21    9   26 1   
    22   10   11 1   
    23   11   12 2   
    24   11   13 1   
    25   11   14 1   
    26   13   27 1   
    27   14   28 1   
@<TRIPOS>SUBSTRUCTURE
     1 P25         1 TEMP              0 ****  ****    0 ROOT
