@<TRIPOS>MOLECULE
SIN  SUCCINIC ACID.  C4 H6 O4. 
   14    13     1     0     0
SMALL
bcc via mopac
****
From PDBeChem: antechamber -fi pdb -fo mol2 -i SIN.pdb -o sin.mol2 -c bcc
@<TRIPOS>ATOM
      1 C1          0.0450    0.0000    1.9030 c         1 SIN      0.635100
      2 O1          1.2460    0.0000    2.0370 o         1 SIN     -0.549900
      3 O2         -0.7500    0.0000    2.9840 oh        1 SIN     -0.604100
      4 C2         -0.5580    0.0000    0.5220 c3        1 SIN     -0.128000
      5 C3          0.5580    0.0000   -0.5220 c3        1 SIN     -0.128200
      6 C4         -0.0450    0.0000   -1.9030 c         1 SIN      0.635300
      7 O3         -1.2460    0.0000   -2.0370 o         1 SIN     -0.549600
      8 O4          0.7500    0.0000   -2.9840 oh        1 SIN     -0.604400
      9 HO2        -0.3620    0.0000    3.8700 ho        1 SIN      0.448100
     10 H21        -1.1740   -0.8900    0.3950 hc        1 SIN      0.099200
     11 H22        -1.1740    0.8900    0.3950 hc        1 SIN      0.099500
     12 H31         1.1740    0.8900   -0.3950 hc        1 SIN      0.099600
     13 H32         1.1740   -0.8900   -0.3950 hc        1 SIN      0.099300
     14 HO4         0.3620    0.0000   -3.8700 ho        1 SIN      0.448000
@<TRIPOS>BOND
     1    1    2 2   
     2    1    3 1   
     3    1    4 1   
     4    3    9 1   
     5    4    5 1   
     6    4   10 1   
     7    4   11 1   
     8    5    6 1   
     9    5   12 1   
    10    5   13 1   
    11    6    7 2   
    12    6    8 1   
    13    8   14 1   
@<TRIPOS>SUBSTRUCTURE
     1 SIN         1 TEMP              0 ****  ****    0 ROOT
