@<TRIPOS>MOLECULE
SO4  Sulfate dianion.
    5     4     1     0     0
SMALL
bcc via mopac
****
Sulfate dianion from 1XPF: antechamber -fi pdb -fo mol2 -i so4.pdb -o so4.mol2 -c bcc -nc -2 -j 5
@<TRIPOS>ATOM
      1 O1         23.4430   25.8690   60.6240 o         1 SO4     -1.208600
      2 O2         25.5940   25.7060   61.7080 o         1 SO4     -1.208600
      3 O3         25.3840   27.1030   59.6780 o         1 SO4     -1.208600
      4 O4         24.3080   27.8630   61.7110 o         1 SO4     -1.208600
      5 S          24.6600   26.5940   60.9330 s6        1 SO4      2.834500
@<TRIPOS>BOND
     1    1    5 1   
     2    2    5 1   
     3    3    5 1   
     4    4    5 1   
@<TRIPOS>SUBSTRUCTURE
     1 SO4         1 TEMP              0 ****  ****    0 ROOT
