@<TRIPOS>MOLECULE
SPD  Spermidine.
   27    26     1     0     0
SMALL
bcc via mopac
****
Spermidine from 1U8D: antechamber -fi pdb -fo mol2 -i spd.pdb -o spd.mol2 -c bcc -nc 0
@<TRIPOS>ATOM
      1 C2         29.6010   15.1370    7.6380 c2        1 SPD      0.078000
      2 C3         28.1600   14.7940    7.1500 c3        1 SPD     -0.114900
      3 C4         27.1540   15.9120    6.7370 c3        1 SPD     -0.085300
      4 C5         27.8960   17.2060    6.2160 c3        1 SPD      0.159000
      5 C7         28.1290   18.2160    8.6960 c3        1 SPD      0.143500
      6 C8         26.6990   18.3580    9.2850 c3        1 SPD     -0.102300
      7 C9         25.5630   18.9630    8.3580 c2        1 SPD     -0.132600
      8 H101       24.2370   18.5110    6.8320 hn        1 SPD      0.188700
      9 H102       25.2470   17.1800    7.3510 hn        1 SPD      0.188500
     10 H11        30.4880   15.2850    5.7890 hn        1 SPD      0.260800
     11 H12        31.5520   15.5680    7.1490 hn        1 SPD      0.248600
     12 H2         29.7830   15.2100    8.7000 h4        1 SPD      0.012600
     13 H31        28.2750   14.1470    6.2800 hc        1 SPD      0.048200
     14 H32        27.6850   14.2030    7.9330 hc        1 SPD      0.052600
     15 H41        26.5470   16.1780    7.6030 hc        1 SPD      0.055500
     16 H42        26.5030   15.5330    5.9490 hc        1 SPD      0.042700
     17 H51        28.7840   16.8590    5.6880 h1        1 SPD      0.037700
     18 H52        27.2460   17.6770    5.4790 h1        1 SPD      0.028300
     19 H6         28.8350   19.0820    6.7700 hn        1 SPD      0.357600
     20 H71        28.7290   19.0140    9.1340 h1        1 SPD      0.039400
     21 H72        28.5360   17.2680    9.0490 h1        1 SPD      0.036800
     22 H81        26.3740   17.3620    9.5870 hc        1 SPD      0.025600
     23 H82        26.7650   18.9750   10.1810 hc        1 SPD      0.029000
     24 H9         25.2670   19.9970    8.4530 h4        1 SPD     -0.002800
     25 N1         30.6350   15.3480    6.7860 nh        1 SPD     -0.390400
     26 N10        24.9630   18.1460    7.4320 nh        1 SPD     -0.388000
     27 N6         28.3560   18.2800    7.1540 n3        1 SPD     -0.816800
@<TRIPOS>BOND
     1    1    2 1   
     2    1   12 1   
     3    1   25 2   
     4    2    3 1   
     5    2   13 1   
     6    2   14 1   
     7    3    4 1   
     8    3   15 1   
     9    3   16 1   
    10    4   17 1   
    11    4   18 1   
    12    4   27 1   
    13    5    6 1   
    14    5   20 1   
    15    5   21 1   
    16    5   27 1   
    17    6    7 1   
    18    6   22 1   
    19    6   23 1   
    20    7   24 1   
    21    7   26 2   
    22    8   26 1   
    23    9   26 1   
    24   10   25 1   
    25   11   25 1   
    26   19   27 1   
@<TRIPOS>SUBSTRUCTURE
     1 SPD         1 TEMP              0 ****  ****    0 ROOT
