@<TRIPOS>MOLECULE
UMP  2'-Deoxyuridine 5'-Monophosphate.  C9 H13 N2 O8 P.
   33    34     1     0     0
SMALL
bcc via mopac
****
2'-Deoxyuridine 5'-Monophosphate from PDBeChem: antechamber -fi pdb -fo mol2 -i UMP.pdb -o ump.mol2 -c bcc
@<TRIPOS>ATOM
      1 N1          2.5570    0.3040    0.4540 n         1 UMP     -0.386600
      2 C2          2.5860   -0.4950   -0.6280 c         1 UMP      0.836000
      3 N3          3.6540   -1.2730   -0.8850 n         1 UMP     -0.552000
      4 C4          4.7130   -1.2720   -0.0500 c         1 UMP      0.723900
      5 C5          4.6930   -0.4400    1.0960 cc        1 UMP     -0.295800
      6 C6          3.6110    0.3350    1.3260 cd        1 UMP      0.038100
      7 O2          1.6390   -0.5070   -1.3900 o         1 UMP     -0.680400
      8 O4          5.6770   -1.9800   -0.2780 o         1 UMP     -0.611400
      9 C1'         1.3840    1.1440    0.7040 c3        1 UMP      0.314500
     10 C2'         1.2360    2.2070   -0.4070 c3        1 UMP     -0.133300
     11 C3'        -0.2900    2.3200   -0.6180 c3        1 UMP      0.123800
     12 C4'        -0.8870    1.3120    0.3880 c3        1 UMP      0.118800
     13 O3'        -0.7400    3.6450   -0.3270 oh        1 UMP     -0.594500
     14 O4'         0.1740    0.3590    0.6270 os        1 UMP     -0.439200
     15 C5'        -2.1090    0.6100   -0.2100 c3        1 UMP      0.153200
     16 O5'        -2.6660   -0.2830    0.7560 os        1 UMP     -0.603300
     17 P          -3.9390   -0.9830    0.0630 p5        1 UMP      1.660500
     18 OP1        -3.5230   -1.6180   -1.2070 o         1 UMP     -0.798700
     19 OP2        -4.5410   -2.1020    1.0520 oh        1 UMP     -0.782400
     20 OP3        -5.0650    0.1290   -0.2370 oh        1 UMP     -0.747800
     21 HN3         3.6600   -1.8410   -1.6710 hn        1 UMP      0.354900
     22 H5          5.5320   -0.4250    1.7760 ha        1 UMP      0.176000
     23 H6          3.5780    0.9770    2.1940 h4        1 UMP      0.157100
     24 H1'         1.4620    1.6240    1.6800 h2        1 UMP      0.084400
     25 H2'         1.7240    1.8730   -1.3230 hc        1 UMP      0.093500
     26 H2''        1.6480    3.1620   -0.0800 hc        1 UMP      0.070100
     27 H3'        -0.5560    2.0440   -1.6390 h1        1 UMP      0.077700
     28 H4'        -1.1580    1.8180    1.3150 h1        1 UMP      0.102200
     29 HO3'       -0.3130    4.2320   -0.9650 ho        1 UMP      0.409200
     30 H5'        -2.8540    1.3550   -0.4900 h1        1 UMP      0.066100
     31 H5''       -1.8080    0.0480   -1.0940 h1        1 UMP      0.085900
     32 HOP2       -5.3000   -2.4950    0.6000 ho        1 UMP      0.491500
     33 HOP3       -5.3080    0.5180    0.6140 ho        1 UMP      0.488000
@<TRIPOS>BOND
     1    1    2 1   
     2    1    6 1   
     3    1    9 1   
     4    2    3 1   
     5    2    7 2   
     6    3    4 1   
     7    3   21 1   
     8    4    5 1   
     9    4    8 2   
    10    5    6 2   
    11    5   22 1   
    12    6   23 1   
    13    9   10 1   
    14    9   14 1   
    15    9   24 1   
    16   10   11 1   
    17   10   25 1   
    18   10   26 1   
    19   11   12 1   
    20   11   13 1   
    21   11   27 1   
    22   12   14 1   
    23   12   15 1   
    24   12   28 1   
    25   13   29 1   
    26   15   16 1   
    27   15   30 1   
    28   15   31 1   
    29   16   17 1   
    30   17   18 2   
    31   17   19 1   
    32   17   20 1   
    33   19   32 1   
    34   20   33 1   
@<TRIPOS>SUBSTRUCTURE
     1 UMP         1 TEMP              0 ****  ****    0 ROOT
