@<TRIPOS>MOLECULE
MTX  Methotrexate.
   54    56     1     0     0
SMALL
GASTEIGER
****
3dfr coordinates, GAFF atom types by Brozell 4/2004, charges by Ewing 1/1995

@<TRIPOS>ATOM
      1 N1         -4.2770   30.4270   21.0550 na        1 MTX      -0.1562
      2 C2         -4.3740   29.2780   21.7480 ca        1 MTX       0.3732
      3 N3         -5.6060   28.7540   21.8780 nh        1 MTX      -0.2882
      4 N4         -3.2750   28.6950   22.2860 nb        1 MTX      -0.1550
      5 C5         -2.0460   29.2500   22.2310 ca        1 MTX       0.1580
      6 N6         -0.9660   28.6650   22.7880 nh        1 MTX      -0.3410
      7 C7         -1.9580   30.4920   21.5810 ca        1 MTX       0.1960
      8 N8         -0.7960   31.1600   21.5170 nb        1 MTX      -0.2378
      9 C9         -0.7170   32.3040   20.8220 ca        1 MTX       0.0777
     10 C10        -1.8440   32.8280   20.1660 ca        1 MTX       0.0569
     11 N11        -3.0190   32.1860   20.3090 nb        1 MTX      -0.1911
     12 C12        -3.0950   31.0260   20.9810 ca        1 MTX       0.3352
     13 C13         0.6350   33.0090   20.7290 c3        1 MTX       0.0555
     14 N14         0.6000   34.4500   20.4380 nh        1 MTX      -0.3271
     15 C15         1.3160   34.7980   19.2280 c3        1 MTX       0.0011
     16 C16        -1.4470   37.2790   22.9160 ca        1 MTX       0.0368
     17 C17        -0.9160   37.6230   21.6770 ca        1 MTX      -0.0479
     18 C18        -0.2390   36.7430   20.8370 ca        1 MTX      -0.0399
     19 C19        -0.0130   35.3900   21.2150 ca        1 MTX       0.0298
     20 C20        -0.5270   35.0300   22.4830 ca        1 MTX      -0.0399
     21 C21        -1.2720   35.9280   23.2870 ca        1 MTX      -0.0479
     22 C22        -2.2220   38.3520   23.6740 c         1 MTX       0.2446
     23 O23        -2.0150   39.5260   23.4600 o         1 MTX      -0.2702
     24 N24        -3.1340   37.9160   24.6080 n         1 MTX      -0.3034
     25 C25        -3.7270   38.7630   25.6650 c3        1 MTX       0.0632
     26 C26        -3.6020   38.0140   26.9730 c         1 MTX       0.0620
     27 O27        -3.4850   36.7560   27.0550 o         1 MTX      -0.5479
     28 O28        -3.6570   38.7490   28.0100 o         1 MTX      -0.5479
     29 C29        -5.2650   38.9970   25.6940 c3        1 MTX      -0.0241
     30 C30        -5.7440   40.1610   24.7840 c3        1 MTX      -0.0112
     31 C31        -7.1150   40.1540   24.1380 c         1 MTX       0.0418
     32 O32        -7.3430   40.7190   23.0240 o         1 MTX      -0.5498
     33 O33        -7.9820   39.5090   24.7900 o         1 MTX      -0.5498
     34 H34        -6.4220   29.2340   21.4660 hn        1 MTX       0.1493
     35 H35        -5.7230   27.8780   22.3750 hn        1 MTX       0.1493
     36 H36        -0.0280   29.0950   22.7390 hn        1 MTX       0.1438
     37 H37        -1.0650   27.7780   23.2870 hn        1 MTX       0.1438
     38 H38        -1.8140   33.7470   19.5910 h4        1 MTX       0.0850
     39 H39         1.1020   32.4690   19.9110 h1        1 MTX       0.0529
     40 H40         1.2330   32.7680   21.6210 h1        1 MTX       0.0529
     41 H41         1.3740   35.8520   19.0100 h1        1 MTX       0.0428
     42 H42         0.8140   34.3100   18.3880 h1        1 MTX       0.0428
     43 H43         2.3570   34.5000   19.3540 h1        1 MTX       0.0428
     44 H44        -1.0710   38.6310   21.3320 ha        1 MTX       0.0626
     45 H45         0.0310   37.2480   19.9200 ha        1 MTX       0.0636
     46 H46        -0.3580   34.0230   22.8610 ha        1 MTX       0.0636
     47 H47        -1.7000   35.5130   24.1850 ha        1 MTX       0.0626
     48 H48        -3.5340   36.9930   24.4110 hn        1 MTX       0.1496
     49 H49        -3.2160   39.7590   25.7500 h1        1 MTX       0.0560
     50 H50        -5.5800   39.3410   26.7030 hc        1 MTX       0.0290
     51 H51        -5.7940   38.0370   25.5200 hc        1 MTX       0.0290
     52 H52        -5.0200   40.3150   23.9610 hc        1 MTX       0.0325
     53 H53        -5.9470   41.0420   25.3980 hc        1 MTX       0.0325
     54 H54        -5.0790   30.8210   20.6060 hn        1 MTX       0.4581
@<TRIPOS>BOND
     1    1    2 1   
     2    1   12 2   
     3    1   54 1   
     4    2    3 1   
     5    2    4 2   
     6    3   34 1   
     7    3   35 1   
     8    4    5 1   
     9    5    6 1   
    10    5    7 2   
    11    6   36 1   
    12    6   37 1   
    13    7    8 1   
    14    7   12 1   
    15    8    9 2   
    16    9   10 1   
    17    9   13 1   
    18   10   11 2   
    19   10   38 1   
    20   11   12 1   
    21   13   14 1   
    22   13   39 1   
    23   13   40 1   
    24   14   15 1   
    25   14   19 1   
    26   15   41 1   
    27   15   42 1   
    28   15   43 1   
    29   16   17 ar  
    30   16   21 ar  
    31   16   22 1   
    32   17   18 ar  
    33   17   44 1   
    34   18   19 ar  
    35   18   45 1   
    36   19   20 ar  
    37   20   21 ar  
    38   20   46 1   
    39   21   47 1   
    40   22   23 2   
    41   22   24 am  
    42   24   25 1   
    43   24   48 1   
    44   25   26 1   
    45   25   29 1   
    46   25   49 1   
    47   26   27 2   
    48   26   28 2   
    49   29   30 1   
    50   29   50 1   
    51   29   51 1   
    52   30   31 1   
    53   30   52 1   
    54   30   53 1   
    55   31   32 2   
    56   31   33 2   
@<TRIPOS>SUBSTRUCTURE
     1 MTX         1 TEMP              0 ****  ****    0 ROOT
