@<TRIPOS>MOLECULE
ACT  Acetate anion.
    7     6     1     0     0
SMALL
bcc via mopac
****
Acetate anion from 1U8D: antechamber -fi pdb -fo mol2 -i act.pdb -c bcc -nc -1
@<TRIPOS>ATOM
      1 C          35.7520   18.8720   10.8590 c         1 ACT      0.901700
      2 CH3        35.7250   17.8220    9.7620 c3        1 ACT     -0.200200
      3 HH31       35.9160   18.2970    8.7990 hc        1 ACT      0.008100
      4 HH32       34.7460   17.3420    9.7430 hc        1 ACT      0.006100
      5 HH33       36.4930   17.0730    9.9570 hc        1 ACT      0.006500
      6 O          35.6660   18.4470   12.0390 o         1 ACT     -0.862200
      7 OXT        35.8550   20.1140   10.4380 o         1 ACT     -0.860000
@<TRIPOS>BOND
     1    1    2 1   
     2    1    6 1   
     3    1    7 1   
     4    2    3 1   
     5    2    4 1   
     6    2    5 1   
@<TRIPOS>SUBSTRUCTURE
     1 ACT         1 TEMP              0 ****  ****    0 ROOT
