@<TRIPOS>MOLECULE
BAL  BETA-ALANINE.  C3 H7 N O2. 
   13    12     1     0     0
SMALL
bcc via mopac
****
From PDBeChem: antechamber -fi pdb -fo mol2 -i BAL.pdb -o bal.mol2 -c bcc
@<TRIPOS>ATOM
      1 N           2.7160   -0.2470   -0.0350 n3        1 BAL     -0.920000
      2 CB          1.4000    0.4050   -0.0140 c3        1 BAL      0.161200
      3 CA          0.3020   -0.6610   -0.0220 c3        1 BAL     -0.131700
      4 C          -1.0480    0.0080    0.0000 c         1 BAL      0.635500
      5 O          -1.1240    1.2140    0.0200 o         1 BAL     -0.551100
      6 OXT        -2.1650   -0.7350   -0.0030 oh        1 BAL     -0.611100
      7 H           3.4580    0.4360   -0.0310 hn        1 BAL      0.360900
      8 H2          2.8130   -0.8910    0.7350 hn        1 BAL      0.348600
      9 HB3         1.3100    1.0130    0.8870 h1        1 BAL      0.020100
     10 HB2         1.2950    1.0410   -0.8930 h1        1 BAL      0.066800
     11 HA1         0.3920   -1.2680   -0.9230 hc        1 BAL      0.096300
     12 HA2         0.4070   -1.2970    0.8570 hc        1 BAL      0.079500
     13 HXT        -3.0080   -0.2610    0.0120 ho        1 BAL      0.444900
@<TRIPOS>BOND
     1    1    2 1   
     2    1    7 1   
     3    1    8 1   
     4    2    3 1   
     5    2    9 1   
     6    2   10 1   
     7    3    4 1   
     8    3   11 1   
     9    3   12 1   
    10    4    5 2   
    11    4    6 1   
    12    6   13 1   
@<TRIPOS>SUBSTRUCTURE
     1 BAL         1 TEMP              0 ****  ****    0 ROOT
