@<TRIPOS>MOLECULE
BME  Beta-Mercaptoethanol.  C2 H6 O S.
   10     9     1     0     0
SMALL
bcc via mopac
****
Beta-Mercaptoethanol from PDBeChem: antechamber -fi pdb -fo mol2 -i BME.pdb -o bme.mol2 -c bcc
@<TRIPOS>ATOM
      1 C1          0.4740    0.0000    1.0590 c3        1 BME      0.141000
      2 C2         -0.6210    0.0000   -0.0070 c3        1 BME      0.000200
      3 O1         -0.1250    0.0000    2.3570 oh        1 BME     -0.602000
      4 S2          0.1380    0.0000   -1.6540 sh        1 BME     -0.377200
      5 H11         1.0920    0.8900    0.9450 h1        1 BME      0.038200
      6 H12         1.0920   -0.8900    0.9450 h1        1 BME      0.038200
      7 H21        -1.2400   -0.8900    0.1060 h1        1 BME      0.074400
      8 H22        -1.2400    0.8900    0.1060 h1        1 BME      0.074500
      9 HO1         0.5980    0.0000    2.9990 ho        1 BME      0.404500
     10 HS2        -0.9650    0.0000   -2.4220 hs        1 BME      0.208300
@<TRIPOS>BOND
     1    1    2 1   
     2    1    3 1   
     3    1    5 1   
     4    1    6 1   
     5    2    4 1   
     6    2    7 1   
     7    2    8 1   
     8    3    9 1   
     9    4   10 1   
@<TRIPOS>SUBSTRUCTURE
     1 BME         1 TEMP              0 ****  ****    0 ROOT
