@<TRIPOS>MOLECULE
CSD  3-SULFINOALANINE.  C3 H7 N O4 S. 
   16    15     1     0     0
SMALL
bcc via mopac
****
From PDBeChem: antechamber -fi pdb -fo mol2 -i CSD.pdb -o csd.mol2 -c bcc
@<TRIPOS>ATOM
      1 N           1.6530    0.6290    0.8090 n3        1 CSD     -0.916500
      2 CA          0.1960    0.4570    0.8690 c3        1 CSD      0.171200
      3 CB         -0.2420   -0.5560   -0.1890 c3        1 CSD     -0.187900
      4 SG          0.2280    0.0460   -1.8340 s4        1 CSD      0.598900
      5 C          -0.1940   -0.0430    2.2350 c         1 CSD      0.629200
      6 O           0.5700   -0.7310    2.8680 o         1 CSD     -0.540700
      7 OXT        -1.3920    0.2750    2.7490 oh        1 CSD     -0.605000
      8 OD1        -0.6590    1.0820   -2.2310 o         1 CSD     -0.519300
      9 OD2        -0.2950   -1.0940   -2.6940 oh        1 CSD     -0.606300
     10 H           1.8790    0.8630   -0.1460 hn        1 CSD      0.382000
     11 H2          2.0600   -0.2760    0.9890 hn        1 CSD      0.376900
     12 HA         -0.2900    1.4140    0.6790 h1        1 CSD      0.087400
     13 HB2         0.2440   -1.5120   -0.0000 h1        1 CSD      0.108000
     14 HB3        -1.3230   -0.6830   -0.1450 h1        1 CSD      0.115100
     15 HXT        -1.6430   -0.0460    3.6260 ho        1 CSD      0.449900
     16 HD2        -0.0920   -0.8690   -3.6120 ho        1 CSD      0.457200
@<TRIPOS>BOND
     1    1    2 1   
     2    1   10 1   
     3    1   11 1   
     4    2    3 1   
     5    2    5 1   
     6    2   12 1   
     7    3    4 1   
     8    3   13 1   
     9    3   14 1   
    10    4    8 2   
    11    4    9 1   
    12    5    6 2   
    13    5    7 1   
    14    7   15 1   
    15    9   16 1   
@<TRIPOS>SUBSTRUCTURE
     1 CSD         1 TEMP              0 ****  ****    0 ROOT
