@<TRIPOS>MOLECULE
CSO  S-HYDROXYCYSTEINE.  C3 H7 N O3 S. 
   15    14     1     0     0
SMALL
bcc via mopac
****
From PDBeChem: antechamber -fi pdb -fo mol2 -i CSO.pdb -o cso.mol2 -c bcc
@<TRIPOS>ATOM
      1 N           0.0710    1.4320    0.5590 n3        1 CSO     -0.901000
      2 CA          0.5160    0.0350    0.4810 c3        1 CSO      0.143800
      3 CB         -0.3720   -0.7300   -0.5020 c3        1 CSO     -0.116200
      4 SG         -2.0930   -0.6740    0.0680 ss        1 CSO      0.007900
      5 C           1.9460   -0.0120    0.0080 c         1 CSO      0.637000
      6 O           2.4200    0.9340   -0.5760 o         1 CSO     -0.547100
      7 OXT         2.6930   -1.1040    0.2340 oh        1 CSO     -0.600200
      8 OD         -2.5190    0.7480   -0.2670 oh        1 CSO     -0.530300
      9 H           0.1270    1.8800   -0.3440 hn        1 CSO      0.365400
     10 HN2        -0.8630    1.4940    0.9350 hn        1 CSO      0.382500
     11 HA          0.4450   -0.4240    1.4670 h1        1 CSO      0.104300
     12 HB2        -0.3010   -0.2710   -1.4880 h1        1 CSO      0.087100
     13 HB3        -0.0420   -1.7670   -0.5600 h1        1 CSO      0.100800
     14 HXT         3.6040   -1.0870   -0.0890 ho        1 CSO      0.445900
     15 HD         -3.4320    0.9530   -0.0240 ho        1 CSO      0.420100
@<TRIPOS>BOND
     1    1    2 1   
     2    1    9 1   
     3    1   10 1   
     4    2    3 1   
     5    2    5 1   
     6    2   11 1   
     7    3    4 1   
     8    3   12 1   
     9    3   13 1   
    10    4    8 1   
    11    5    6 2   
    12    5    7 1   
    13    7   14 1   
    14    8   15 1   
@<TRIPOS>SUBSTRUCTURE
     1 CSO         1 TEMP              0 ****  ****    0 ROOT
