@<TRIPOS>MOLECULE
FPP  FARNESYL DIPHOSPHATE.  C15 H28 O7 P2. 
   52    51     1     0     0
SMALL
bcc via mopac
****
From PDBeChem: antechamber -fi pdb -fo mol2 -i FPP.pdb -o fpp.mol2 -c bcc
@<TRIPOS>ATOM
      1 C1          1.2440    0.4590   -1.5310 c3        1 FPP      0.196000
      2 O1         -0.0460    0.3470   -2.1350 os        1 FPP     -0.551300
      3 C2          1.0930    0.5240   -0.0330 c2        1 FPP     -0.191400
      4 C3          1.8820   -0.1840    0.7350 c2        1 FPP     -0.093700
      5 C4          3.0120   -0.9750    0.1300 c3        1 FPP     -0.072000
      6 C5          1.6580   -0.2090    2.2250 c3        1 FPP     -0.043700
      7 C6          0.7070   -1.3540    2.5790 c3        1 FPP     -0.041600
      8 C7          0.4840   -1.3790    4.0700 c2        1 FPP     -0.180700
      9 C8         -0.7340   -1.3440    4.5500 c2        1 FPP     -0.116100
     10 C10        -1.9140   -1.4080    3.6150 c3        1 FPP     -0.060700
     11 C9         -0.9550   -1.2400    6.0370 c3        1 FPP     -0.039100
     12 C11        -1.0280    0.2330    6.4400 c3        1 FPP     -0.041800
     13 C12        -1.2490    0.3370    7.9270 c2        1 FPP     -0.184500
     14 C13        -0.4320    1.0500    8.6620 c2        1 FPP     -0.114300
     15 C14        -0.5760    1.0520   10.1630 c3        1 FPP     -0.059400
     16 C15         0.6490    1.8690    8.0080 c3        1 FPP     -0.058500
     17 PA          0.1890    0.2830   -3.7260 p5        1 FPP      1.744700
     18 O1A         0.8730    1.5170   -4.1740 o         1 FPP     -0.907500
     19 O2A         1.1000   -0.9940   -4.0830 oh        1 FPP     -0.780300
     20 O3A        -1.2310    0.1550   -4.4740 os        1 FPP     -0.704800
     21 PB         -0.9220    0.0970   -6.0530 p5        1 FPP      1.733000
     22 O1B        -0.0670   -1.0750   -6.3450 o         1 FPP     -0.849000
     23 O2B        -2.3050   -0.0310   -6.8660 oh        1 FPP     -0.751400
     24 O3B        -0.1590    1.4420   -6.5010 oh        1 FPP     -0.752100
     25 H11         1.7340    1.3660   -1.8860 h1        1 FPP      0.054400
     26 H12A        1.8470   -0.4070   -1.7980 h1        1 FPP      0.058400
     27 H2          0.3350    1.1550    0.4060 ha        1 FPP      0.156400
     28 H41         3.7180   -0.2940   -0.3450 hc        1 FPP      0.048100
     29 H42         3.5220   -1.5380    0.9120 hc        1 FPP      0.051900
     30 H43         2.6150   -1.6650   -0.6140 hc        1 FPP      0.041900
     31 H51         1.2210    0.7370    2.5430 hc        1 FPP      0.052400
     32 H52         2.6110   -0.3580    2.7330 hc        1 FPP      0.053000
     33 H61         1.1440   -2.3010    2.2620 hc        1 FPP      0.049200
     34 H62        -0.2450   -1.2050    2.0720 hc        1 FPP      0.051900
     35 H7          1.3280   -1.4260    4.7410 ha        1 FPP      0.124100
     36 H101       -1.8330   -2.2940    2.9870 hc        1 FPP      0.041400
     37 H102       -2.8350   -1.4570    4.1960 hc        1 FPP      0.042100
     38 H103       -1.9290   -0.5170    2.9870 hc        1 FPP      0.042900
     39 H91        -0.1280   -1.7200    6.5610 hc        1 FPP      0.047600
     40 H92        -1.8890   -1.7360    6.3010 hc        1 FPP      0.046700
     41 H111       -1.8540    0.7130    5.9160 hc        1 FPP      0.049500
     42 H112       -0.0930    0.7280    6.1760 hc        1 FPP      0.048900
     43 H12        -2.0800   -0.1760    8.3870 ha        1 FPP      0.118900
     44 H141        0.1840    1.6980   10.6000 hc        1 FPP      0.039600
     45 H142       -1.5650    1.4220   10.4320 hc        1 FPP      0.041700
     46 H143       -0.4520    0.0370   10.5410 hc        1 FPP      0.041300
     47 H151        0.2040    2.5350    7.2680 hc        1 FPP      0.041900
     48 H152        1.1650    2.4610    8.7650 hc        1 FPP      0.039400
     49 H153        1.3610    1.2050    7.5180 hc        1 FPP      0.043100
     50 HOA2        0.6190   -1.7750   -3.7750 ho        1 FPP      0.509200
     51 HOB2       -2.0760   -0.0630   -7.8050 ho        1 FPP      0.475700
     52 HOB3       -0.7490    2.1800   -6.2940 ho        1 FPP      0.508500
@<TRIPOS>BOND
     1    1    2 1   
     2    1    3 1   
     3    1   25 1   
     4    1   26 1   
     5    2   17 1   
     6    3    4 2   
     7    3   27 1   
     8    4    5 1   
     9    4    6 1   
    10    5   28 1   
    11    5   29 1   
    12    5   30 1   
    13    6    7 1   
    14    6   31 1   
    15    6   32 1   
    16    7    8 1   
    17    7   33 1   
    18    7   34 1   
    19    8    9 2   
    20    8   35 1   
    21    9   10 1   
    22    9   11 1   
    23   10   36 1   
    24   10   37 1   
    25   10   38 1   
    26   11   12 1   
    27   11   39 1   
    28   11   40 1   
    29   12   13 1   
    30   12   41 1   
    31   12   42 1   
    32   13   14 2   
    33   13   43 1   
    34   14   15 1   
    35   14   16 1   
    36   15   44 1   
    37   15   45 1   
    38   15   46 1   
    39   16   47 1   
    40   16   48 1   
    41   16   49 1   
    42   17   18 2   
    43   17   19 1   
    44   17   20 1   
    45   19   50 1   
    46   20   21 1   
    47   21   22 2   
    48   21   23 1   
    49   21   24 1   
    50   23   51 1   
    51   24   52 1   
@<TRIPOS>SUBSTRUCTURE
     1 FPP         1 TEMP              0 ****  ****    0 ROOT
