@<TRIPOS>MOLECULE
GLC  ALPHA-D-GLUCOSE.  C6 H12 O6. 
   24    24     1     0     0
SMALL
bcc via mopac
****
From PDBeChem: antechamber -fi pdb -fo mol2 -i GLC.pdb -o glc.mol2 -c bcc
@<TRIPOS>ATOM
      1 C1         -0.5670    1.5720   -0.2450 c3        1 GLC      0.306000
      2 C2         -1.5780    0.4650   -0.5540 c3        1 GLC      0.094600
      3 C3         -1.1790   -0.8060    0.2030 c3        1 GLC      0.074000
      4 C4          0.2490   -1.1950   -0.1920 c3        1 GLC      0.125500
      5 C5          1.1890   -0.0240    0.1020 c3        1 GLC      0.137800
      6 C6          2.6070   -0.3830   -0.3450 c3        1 GLC      0.135800
      7 O1         -0.6000    1.8710    1.1510 oh        1 GLC     -0.640700
      8 O2         -2.8810    0.8790   -0.1390 oh        1 GLC     -0.593300
      9 O3         -2.0750   -1.8660   -0.1370 oh        1 GLC     -0.607800
     10 O4          0.6580   -2.3380    0.5620 oh        1 GLC     -0.594300
     11 O5          0.7440    1.1330   -0.6080 os        1 GLC     -0.440600
     12 O6          3.5060    0.6610    0.0350 oh        1 GLC     -0.600000
     13 H1         -0.8220    2.4660   -0.8150 h2        1 GLC      0.085400
     14 H2         -1.5830    0.2640   -1.6260 h1        1 GLC      0.098100
     15 H3         -1.2230   -0.6190    1.2760 h1        1 GLC      0.066800
     16 H4          0.2810   -1.4290   -1.2570 h1        1 GLC      0.056800
     17 H5          1.1870    0.1840    1.1730 h1        1 GLC      0.086800
     18 H61         2.9130   -1.3150    0.1290 h1        1 GLC      0.058000
     19 H62         2.6270   -0.5030   -1.4280 h1        1 GLC      0.040100
     20 HO1         0.0170    2.5660    1.4200 ho        1 GLC      0.433900
     21 HO2        -3.1970    1.6820   -0.5760 ho        1 GLC      0.423700
     22 HO3        -3.0000   -1.6840    0.0800 ho        1 GLC      0.424400
     23 HO4         0.1020   -3.1180    0.4270 ho        1 GLC      0.425600
     24 HO6         4.4250    0.5010   -0.2180 ho        1 GLC      0.403400
@<TRIPOS>BOND
     1    1    2 1   
     2    1    7 1   
     3    1   11 1   
     4    1   13 1   
     5    2    3 1   
     6    2    8 1   
     7    2   14 1   
     8    3    4 1   
     9    3    9 1   
    10    3   15 1   
    11    4    5 1   
    12    4   10 1   
    13    4   16 1   
    14    5    6 1   
    15    5   11 1   
    16    5   17 1   
    17    6   12 1   
    18    6   18 1   
    19    6   19 1   
    20    7   20 1   
    21    8   21 1   
    22    9   22 1   
    23   10   23 1   
    24   12   24 1   
@<TRIPOS>SUBSTRUCTURE
     1 GLC         1 TEMP              0 ****  ****    0 ROOT
