@<TRIPOS>MOLECULE
IMP  INOSINIC ACID.  C10 H13 N4 O8 P. 
   36    38     1     0     0
SMALL
bcc via mopac
****
From PDBeChem: antechamber -fi pdb -fo mol2 -i IMP.pdb -o imp.mol2 -c bcc
@<TRIPOS>ATOM
      1 P          -4.6690   -0.9360    0.1600 p5        1 IMP      1.635400
      2 O1P        -5.3080   -0.4680   -1.0900 o         1 IMP     -0.806600
      3 O2P        -5.1440   -2.4420    0.4740 oh        1 IMP     -0.777900
      4 O3P        -5.0990    0.0270    1.3760 oh        1 IMP     -0.737200
      5 O5'        -3.0680   -0.9030   -0.0110 os        1 IMP     -0.578200
      6 C5'        -2.7220    0.4270   -0.4030 c3        1 IMP      0.169500
      7 C4'        -1.2060    0.5280   -0.5830 c3        1 IMP      0.090100
      8 O4'        -0.5320    0.3600    0.6820 os        1 IMP     -0.401400
      9 C3'        -0.8030    1.9590   -1.0210 c3        1 IMP      0.128800
     10 O3'        -1.6110    2.9390   -0.3680 oh        1 IMP     -0.574400
     11 C2'         0.6660    2.0430   -0.5380 c3        1 IMP      0.079900
     12 O2'         0.9350    3.3310    0.0200 oh        1 IMP     -0.591000
     13 C1'         0.7710    0.9530    0.5450 c3        1 IMP      0.222600
     14 N9          1.7410   -0.0650    0.1350 na        1 IMP     -0.220200
     15 C8          1.4590   -1.2380   -0.5000 cc        1 IMP      0.423100
     16 N7          2.5600   -1.9000   -0.7120 nd        1 IMP     -0.594300
     17 C5          3.6070   -1.1940   -0.2270 cd        1 IMP      0.214100
     18 C6          5.0070   -1.4090   -0.1750 c         1 IMP      0.635200
     19 O6          5.5020   -2.4220   -0.6380 o         1 IMP     -0.587000
     20 N1          5.7780   -0.4610    0.4020 n         1 IMP     -0.495400
     21 C2          5.2160    0.6630    0.9140 cd        1 IMP      0.500400
     22 N3          3.9310    0.8760    0.8750 nc        1 IMP     -0.625800
     23 C4          3.0960   -0.0100    0.3150 cc        1 IMP      0.054500
     24 HOP2       -6.1060   -2.4180    0.5690 ho        1 IMP      0.487200
     25 HOP3       -4.6620   -0.3130    2.1690 ho        1 IMP      0.489100
     26 H5'1       -3.0440    1.1280    0.3680 h1        1 IMP      0.067900
     27 H5'2       -3.2170    0.6690   -1.3430 h1        1 IMP      0.073400
     28 H4'        -0.8550   -0.2090   -1.3060 h1        1 IMP      0.085300
     29 H3'        -0.8630    2.0660   -2.1040 h1        1 IMP      0.097300
     30 HO3'       -1.2520    3.8040   -0.6090 ho        1 IMP      0.428900
     31 H2'         1.3500    1.8340   -1.3600 h1        1 IMP      0.085300
     32 HO2'        0.7960    3.9770   -0.6870 ho        1 IMP      0.430400
     33 H1'         1.0760    1.3990    1.4920 h2        1 IMP      0.112100
     34 H8          0.4710   -1.5680   -0.7840 h5        1 IMP      0.082400
     35 HN1         6.7390   -0.5840    0.4500 hn        1 IMP      0.339500
     36 H2          5.8550    1.4050    1.3700 h5        1 IMP      0.057000
@<TRIPOS>BOND
     1    1    2 2   
     2    1    3 1   
     3    1    4 1   
     4    1    5 1   
     5    3   24 1   
     6    4   25 1   
     7    5    6 1   
     8    6    7 1   
     9    6   26 1   
    10    6   27 1   
    11    7    8 1   
    12    7    9 1   
    13    7   28 1   
    14    8   13 1   
    15    9   10 1   
    16    9   11 1   
    17    9   29 1   
    18   10   30 1   
    19   11   12 1   
    20   11   13 1   
    21   11   31 1   
    22   12   32 1   
    23   13   14 1   
    24   13   33 1   
    25   14   15 ar  
    26   14   23 ar  
    27   15   16 ar  
    28   15   34 1   
    29   16   17 ar  
    30   17   18 1   
    31   17   23 ar  
    32   18   19 2   
    33   18   20 1   
    34   20   21 1   
    35   20   35 1   
    36   21   22 2   
    37   21   36 1   
    38   22   23 1   
@<TRIPOS>SUBSTRUCTURE
     1 IMP         1 TEMP              0 ****  ****    0 ROOT
