@<TRIPOS>MOLECULE
NDG  2-(Acetylamino)-2-Deoxy-A-D-Glucopyranose.  C8 H15 N O6.
   30    30     1     0     0
SMALL
bcc via mopac
****
NDG from PDBeChem: antechamber -fi pdb -fo mol2 -i ndg.pdb -o ndg.mol2 -c bcc
@<TRIPOS>ATOM
      1 C1         -0.2070    1.2020    0.1400 c3        1 NDG      0.316000
      2 C2         -0.8590   -0.1320   -0.2340 c3        1 NDG      0.100400
      3 C3          0.0100   -1.2800    0.2900 c3        1 NDG      0.134100
      4 C4          1.4220   -1.1410   -0.2870 c3        1 NDG      0.080500
      5 C5          1.9860    0.2310    0.0880 c3        1 NDG      0.070900
      6 C6          3.3720    0.4010   -0.5350 c3        1 NDG      0.135600
      7 C7         -3.2500    0.3330   -0.2610 c         1 NDG      0.666800
      8 C8         -4.6210    0.2520    0.3600 c3        1 NDG     -0.173100
      9 O           1.1150    1.2530   -0.4020 os        1 NDG     -0.456900
     10 O3         -0.5530   -2.5290   -0.1170 oh        1 NDG     -0.592400
     11 O4          2.2600   -2.1650    0.2520 oh        1 NDG     -0.600400
     12 O6          3.9470    1.6320   -0.0900 oh        1 NDG     -0.591900
     13 O7         -3.1000    0.8900   -1.3280 o         1 NDG     -0.608600
     14 N2         -2.1910   -0.2120    0.3700 n         1 NDG     -0.560000
     15 O1L        -0.1440    1.3200    1.5620 oh        1 NDG     -0.624100
     16 H1         -0.7990    2.0220   -0.2680 h2        1 NDG      0.088200
     17 H2         -0.9440   -0.2050   -1.3180 h1        1 NDG      0.113100
     18 H3          0.0540   -1.2360    1.3780 h1        1 NDG      0.066500
     19 H4          1.3830   -1.2350   -1.3720 h1        1 NDG      0.062500
     20 H5          2.0620    0.3090    1.1730 h1        1 NDG      0.078800
     21 H6C1        4.0110   -0.4280   -0.2310 h1        1 NDG      0.065800
     22 H6C2        3.2840    0.4130   -1.6210 h1        1 NDG      0.038000
     23 H8C1       -5.1190   -0.6570    0.0220 hc        1 NDG      0.064300
     24 H8C2       -4.5280    0.2330    1.4460 hc        1 NDG      0.060000
     25 H8C3       -5.2080    1.1200    0.0610 hc        1 NDG      0.078500
     26 HB         -0.0520   -3.3010    0.1810 ho        1 NDG      0.421500
     27 HC          3.1720   -2.1380   -0.0710 ho        1 NDG      0.411000
     28 H6          4.8290    1.8060   -0.4470 ho        1 NDG      0.415200
     29 HA         -2.3120   -0.6570    1.2230 hn        1 NDG      0.320000
     30 H1L         0.2580    2.1430    1.8710 ho        1 NDG      0.419800
@<TRIPOS>BOND
     1    1    2 1   
     2    1    9 1   
     3    1   15 1   
     4    1   16 1   
     5    2    3 1   
     6    2   14 1   
     7    2   17 1   
     8    3    4 1   
     9    3   10 1   
    10    3   18 1   
    11    4    5 1   
    12    4   11 1   
    13    4   19 1   
    14    5    6 1   
    15    5    9 1   
    16    5   20 1   
    17    6   12 1   
    18    6   21 1   
    19    6   22 1   
    20    7    8 1   
    21    7   13 2   
    22    7   14 1   
    23    8   23 1   
    24    8   24 1   
    25    8   25 1   
    26   10   26 1   
    27   11   27 1   
    28   12   28 1   
    29   14   29 1   
    30   15   30 1   
@<TRIPOS>SUBSTRUCTURE
     1 NDG         1 TEMP              0 ****  ****    0 ROOT
