@<TRIPOS>MOLECULE
NSP  5-(AMINOMETHYL)-2-METHYLPYRIMIDIN-4-AMINE.  C6 H10 N4. 
   20    20     1     0     0
SMALL
bcc via mopac
****
From PDBeChem: antechamber -fi pdb -fo mol2 -i NSP.pdb -o nsp.mol2 -c bcc
@<TRIPOS>ATOM
      1 N           1.1860   -0.0300   -2.9840 n3        1 NSP     -0.915900
      2 CA         -0.1380   -0.0170   -2.3480 c3        1 NSP      0.224200
      3 CP          0.0240   -0.0100   -0.8490 ca        1 NSP     -0.376300
      4 CQ1         1.2790   -0.0160   -0.2730 ca        1 NSP      0.469200
      5 CQ2        -1.0900    0.0020   -0.0090 ca        1 NSP      0.664600
      6 NR1         1.3850   -0.0110    1.0470 nb        1 NSP     -0.733000
      7 NQ2        -2.3700    0.0090   -0.5380 nh        1 NSP     -0.931900
      8 NR2        -0.9030    0.0020    1.3070 nb        1 NSP     -0.763300
      9 CS          0.3130    0.0010    1.8130 ca        1 NSP      0.679000
     10 CS1         0.4830    0.0070    3.3110 c3        1 NSP     -0.135600
     11 HN1         1.0280   -0.0340   -3.9800 hn        1 NSP      0.357100
     12 HN2         1.6230    0.8510   -2.7630 hn        1 NSP      0.352000
     13 HCA1       -0.6950   -0.9040   -2.6490 h1        1 NSP      0.047900
     14 HCA2       -0.6810    0.8750   -2.6580 h1        1 NSP      0.014200
     15 HQ1         2.1640   -0.0260   -0.8920 h4        1 NSP      0.038200
     16 HQ21       -3.1390    0.0180    0.0530 hn        1 NSP      0.418200
     17 HQ22       -2.4980    0.0050   -1.4990 hn        1 NSP      0.406600
     18 HS11        0.5320    1.0360    3.6670 hc        1 NSP      0.060100
     19 HS12       -0.3630   -0.4970    3.7750 hc        1 NSP      0.060900
     20 HS13        1.4040   -0.5120    3.5740 hc        1 NSP      0.064000
@<TRIPOS>BOND
     1    1    2 1   
     2    1   11 1   
     3    1   12 1   
     4    2    3 1   
     5    2   13 1   
     6    2   14 1   
     7    3    4 ar  
     8    3    5 ar  
     9    4    6 ar  
    10    4   15 1   
    11    5    7 1   
    12    5    8 ar  
    13    6    9 ar  
    14    7   16 1   
    15    7   17 1   
    16    8    9 ar  
    17    9   10 1   
    18   10   18 1   
    19   10   19 1   
    20   10   20 1   
@<TRIPOS>SUBSTRUCTURE
     1 NSP         1 TEMP              0 ****  ****    0 ROOT
