@<TRIPOS>MOLECULE
PLP  PYRIDOXAL-5'-PHOSPHATE.  C8 H10 N O6 P. 
   26    26     1     0     0
SMALL
bcc via mopac
****
From PDBeChem: antechamber -fi pdb -fo mol2 -i PLP.pdb -o plp.mol2 -c bcc
@<TRIPOS>ATOM
      1 N1          2.0530   -0.0120    1.9910 nb        1 PLP     -0.622000
      2 C2          1.2860   -0.0080    3.0600 ca        1 PLP      0.388000
      3 C2A         1.9160   -0.0210    4.4290 c3        1 PLP     -0.142600
      4 C3         -0.0980    0.0020    2.9420 ca        1 PLP      0.084900
      5 O3         -0.8840    0.0070    4.0470 oh        1 PLP     -0.490700
      6 C4         -0.6680    0.0200    1.6570 ca        1 PLP     -0.248600
      7 C4A        -2.1290    0.0390    1.4760 c         1 PLP      0.583100
      8 O4A        -2.8590    0.0430    2.4440 o         1 PLP     -0.548400
      9 C5          0.1950    0.0150    0.5530 ca        1 PLP     -0.145100
     10 C6          1.5570   -0.0010    0.7690 ca        1 PLP      0.378400
     11 C5A        -0.3560    0.0270   -0.8490 c3        1 PLP      0.210600
     12 O4P         0.7220    0.0180   -1.7850 os        1 PLP     -0.576400
     13 P           0.0640    0.0320   -3.2540 p5        1 PLP      1.638000
     14 O1P        -0.7590    1.2510   -3.4140 o         1 PLP     -0.805900
     15 O2P         1.2290    0.0230   -4.3650 oh        1 PLP     -0.778000
     16 O3P        -0.8630   -1.2700   -3.4390 oh        1 PLP     -0.741300
     17 H2A1        2.0800    1.0030    4.7630 hc        1 PLP      0.058300
     18 H2A2        1.2540   -0.5300    5.1290 hc        1 PLP      0.061600
     19 H2A3        2.8710   -0.5450    4.3840 hc        1 PLP      0.063000
     20 HO3        -1.0610   -0.9170    4.2680 ho        1 PLP      0.460200
     21 H4A        -2.5500    0.0480    0.4820 h4        1 PLP      0.015800
     22 H6          2.2290   -0.0050   -0.0760 h4        1 PLP      0.047200
     23 H5A1       -0.9780   -0.8540   -1.0020 h1        1 PLP      0.053100
     24 H5A2       -0.9570    0.9250   -0.9950 h1        1 PLP      0.074000
     25 HOP2        0.7930    0.0310   -5.2280 ho        1 PLP      0.491000
     26 HOP3       -0.2890   -2.0400   -3.3270 ho        1 PLP      0.491700
@<TRIPOS>BOND
     1    1    2 ar  
     2    1   10 ar  
     3    2    3 1   
     4    2    4 ar  
     5    3   17 1   
     6    3   18 1   
     7    3   19 1   
     8    4    5 1   
     9    4    6 ar  
    10    5   20 1   
    11    6    7 1   
    12    6    9 ar  
    13    7    8 2   
    14    7   21 1   
    15    9   10 ar  
    16    9   11 1   
    17   10   22 1   
    18   11   12 1   
    19   11   23 1   
    20   11   24 1   
    21   12   13 1   
    22   13   14 2   
    23   13   15 1   
    24   13   16 1   
    25   15   25 1   
    26   16   26 1   
@<TRIPOS>SUBSTRUCTURE
     1 PLP         1 TEMP              0 ****  ****    0 ROOT
