@<TRIPOS>MOLECULE
SAH  S-ADENOSYL-L-HOMOCYSTEINE.  C14 H20 N6 O5 S. 
   46    48     1     0     0
SMALL
bcc via mopac
****
From PDBeChem: antechamber -fi pdb -fo mol2 -i SAH.pdb -o sah.mol2 -c bcc
@<TRIPOS>ATOM
      1 N           0.6630    0.7420    6.8430 n3        1 SAH     -0.903900
      2 CA         -0.6680    0.5580    6.2510 c3        1 SAH      0.132900
      3 CB         -0.5530   -0.3150    5.0000 c3        1 SAH     -0.112800
      4 CG          0.3650    0.3650    3.9850 c3        1 SAH     -0.019300
      5 SD          0.5010   -0.6690    2.5010 ss        1 SAH     -0.267500
      6 C          -1.5730   -0.1120    7.2510 c         1 SAH      0.637700
      7 O          -1.1120   -0.8720    8.0700 o         1 SAH     -0.543900
      8 OXT        -2.8930    0.1320    7.2320 oh        1 SAH     -0.599900
      9 C5'         1.6160    0.3540    1.5030 c3        1 SAH     -0.043500
     10 C4'         1.8830   -0.3370    0.1640 c3        1 SAH      0.108900
     11 O4'         0.6520   -0.4860   -0.5610 os        1 SAH     -0.394500
     12 C3'         2.8240    0.5290   -0.6940 c3        1 SAH      0.128100
     13 O3'         4.0260   -0.1790   -1.0010 oh        1 SAH     -0.575200
     14 C2'         2.0090    0.8000   -1.9860 c3        1 SAH      0.080900
     15 O2'         2.8440    0.7100   -3.1430 oh        1 SAH     -0.594000
     16 C1'         0.9700   -0.3490   -1.9630 c3        1 SAH      0.227700
     17 N9         -0.2230    0.0140   -2.7300 na        1 SAH     -0.297700
     18 C8         -1.2970    0.7150   -2.2670 cc        1 SAH      0.420500
     19 N7         -2.1760    0.8590   -3.2150 nd        1 SAH     -0.546000
     20 C5         -1.7240    0.2610   -4.3440 ca        1 SAH     -0.228500
     21 C6         -2.2280    0.0980   -5.6450 ca        1 SAH      0.762100
     22 N6         -3.4620    0.6170   -5.9970 nh        1 SAH     -0.956400
     23 N1         -1.4930   -0.5660   -6.5310 nb        1 SAH     -0.792300
     24 C2         -0.3140   -1.0650   -6.2040 ca        1 SAH      0.688900
     25 N3          0.1960   -0.9360   -4.9980 nb        1 SAH     -0.758400
     26 C4         -0.4630   -0.2830   -4.0480 ca        1 SAH      0.451700
     27 HN1         1.2600    1.0960    6.1100 hn        1 SAH      0.361900
     28 HN2         1.0060   -0.1760    7.0770 hn        1 SAH      0.370000
     29 HA         -1.0820    1.5280    5.9790 h1        1 SAH      0.096100
     30 HB1        -0.1390   -1.2860    5.2720 hc        1 SAH      0.071500
     31 HB2        -1.5410   -0.4520    4.5610 hc        1 SAH      0.078700
     32 HG1        -0.0480    1.3360    3.7130 h1        1 SAH      0.066500
     33 HG2         1.3540    0.5020    4.4240 h1        1 SAH      0.057200
     34 HXT        -3.4740   -0.2970    7.8740 ho        1 SAH      0.447500
     35 H5'1        1.1550    1.3250    1.3240 h1        1 SAH      0.070400
     36 H5'2        2.5570    0.4910    2.0350 h1        1 SAH      0.076900
     37 H4'         2.3330   -1.3150    0.3360 h1        1 SAH      0.103300
     38 H3'         3.0520    1.4640   -0.1840 h1        1 SAH      0.092500
     39 HO3'        4.5440    0.3890   -1.5870 ho        1 SAH      0.427600
     40 H2'         1.5160    1.7710   -1.9400 h1        1 SAH      0.089800
     41 HO2'        3.4650    1.4490   -3.0980 ho        1 SAH      0.432000
     42 H1'         1.4070   -1.2690   -2.3490 h2        1 SAH      0.107600
     43 H8         -1.4020    1.0950   -1.2620 h5        1 SAH      0.095600
     44 HN61       -3.7990    0.4980   -6.8990 hn        1 SAH      0.444500
     45 HN62       -3.9890    1.1010   -5.3430 hn        1 SAH      0.453800
     46 H2          0.2500   -1.5980   -6.9540 h5        1 SAH      0.051300
@<TRIPOS>BOND
     1    1    2 1   
     2    1   27 1   
     3    1   28 1   
     4    2    3 1   
     5    2    6 1   
     6    2   29 1   
     7    3    4 1   
     8    3   30 1   
     9    3   31 1   
    10    4    5 1   
    11    4   32 1   
    12    4   33 1   
    13    5    9 1   
    14    6    7 2   
    15    6    8 1   
    16    8   34 1   
    17    9   10 1   
    18    9   35 1   
    19    9   36 1   
    20   10   11 1   
    21   10   12 1   
    22   10   37 1   
    23   11   16 1   
    24   12   13 1   
    25   12   14 1   
    26   12   38 1   
    27   13   39 1   
    28   14   15 1   
    29   14   16 1   
    30   14   40 1   
    31   15   41 1   
    32   16   17 1   
    33   16   42 1   
    34   17   18 1   
    35   17   26 1   
    36   18   19 2   
    37   18   43 1   
    38   19   20 1   
    39   20   21 ar  
    40   20   26 ar  
    41   21   22 1   
    42   21   23 ar  
    43   22   44 1   
    44   22   45 1   
    45   23   24 ar  
    46   24   25 ar  
    47   24   46 1   
    48   25   26 ar  
@<TRIPOS>SUBSTRUCTURE
     1 SAH         1 TEMP              0 ****  ****    0 ROOT
