@<TRIPOS>MOLECULE
SUC  SUCROSE.  C12 H22 O11. 
   45    46     1     0     0
SMALL
bcc via mopac
****
From PDBeChem: antechamber -fi pdb -fo mol2 -i SUC.pdb -o suc.mol2 -c bcc
@<TRIPOS>ATOM
      1 C1         -0.5960    0.8330   -0.9180 c3        1 SUC      0.305500
      2 C2         -0.9900    0.7600   -2.3960 c3        1 SUC      0.087300
      3 C3         -0.2190   -0.3840   -3.0620 c3        1 SUC      0.072600
      4 C4          1.2770   -0.1880   -2.7950 c3        1 SUC      0.127000
      5 C5          1.4990   -0.0450   -1.2870 c3        1 SUC      0.103400
      6 C6          2.9940    0.1160   -1.0070 c3        1 SUC      0.137200
      7 O1         -0.8950   -0.4130   -0.2860 os        1 SUC     -0.450200
      8 O2         -2.3940    0.5200   -2.5050 oh        1 SUC     -0.598900
      9 O3         -0.4630   -0.3710   -4.4700 oh        1 SUC     -0.607700
     10 O4          2.0020   -1.3190   -3.2800 oh        1 SUC     -0.594600
     11 O5          0.7990    1.0990   -0.8030 os        1 SUC     -0.432400
     12 O6          3.2150    0.1390    0.4040 oh        1 SUC     -0.606800
     13 C1'        -2.7570    0.4320    1.0100 c3        1 SUC      0.117200
     14 C2'        -1.3270   -0.1090    1.0410 c3        1 SUC      0.309700
     15 C3'        -1.2680   -1.3810    1.9140 c3        1 SUC      0.139100
     16 C4'         0.0880   -1.2070    2.6540 c3        1 SUC      0.079300
     17 C5'         0.1350    0.3310    2.8260 c3        1 SUC      0.075900
     18 C6'         1.5820    0.8080    2.9640 c3        1 SUC      0.116500
     19 O1'        -2.7720    1.6970    0.3450 oh        1 SUC     -0.590800
     20 O2'        -0.4510    0.8600    1.6260 os        1 SUC     -0.443800
     21 O3'        -1.2590   -2.5590    1.1050 oh        1 SUC     -0.569200
     22 O4'         0.0720   -1.8670    3.9210 oh        1 SUC     -0.594900
     23 O6'         1.6070    2.2350    3.0430 oh        1 SUC     -0.604400
     24 H1         -1.1590    1.6300   -0.4320 h2        1 SUC      0.121100
     25 H2         -0.7410    1.7010   -2.8860 h1        1 SUC      0.102200
     26 H3         -0.5440   -1.3370   -2.6430 h1        1 SUC      0.066400
     27 H4          1.6230    0.7120   -3.3030 h1        1 SUC      0.058100
     28 H5          1.1300   -0.9360   -0.7800 h1        1 SUC      0.081600
     29 H61         3.3470    1.0500   -1.4450 h1        1 SUC      0.037500
     30 H62         3.5390   -0.7190   -1.4460 h1        1 SUC      0.092100
     31 HO2        -2.8390    1.2600   -2.0680 ho        1 SUC      0.421100
     32 HO3        -1.4160   -0.4850   -4.5890 ho        1 SUC      0.422300
     33 HO4         1.8280   -1.3770   -4.2290 ho        1 SUC      0.424800
     34 HO6         4.1720    0.1620    0.5370 ho        1 SUC      0.419300
     35 H1'1       -3.4000   -0.2660    0.4760 h1        1 SUC      0.099600
     36 H1'2       -3.1210    0.5540    2.0300 h1        1 SUC      0.044100
     37 H3'        -2.0960   -1.4050    2.6230 h1        1 SUC      0.075200
     38 H4'         0.9180   -1.5590    2.0410 h1        1 SUC      0.072600
     39 H5'        -0.4460    0.6320    3.6970 h1        1 SUC      0.085200
     40 H6'1        2.0190    0.3870    3.8690 h1        1 SUC      0.067700
     41 H6'2        2.1570    0.4820    2.0970 h1        1 SUC      0.056300
     42 HO1'       -3.6900    2.0030    0.3470 ho        1 SUC      0.419700
     43 HO3'       -1.1300   -3.3080    1.7040 ho        1 SUC      0.414300
     44 HO4'        0.8950   -1.6280    4.3710 ho        1 SUC      0.413800
     45 HO6'        2.5380    2.4980    3.0490 ho        1 SUC      0.428100
@<TRIPOS>BOND
     1    1    2 1   
     2    1    7 1   
     3    1   11 1   
     4    1   24 1   
     5    2    3 1   
     6    2    8 1   
     7    2   25 1   
     8    3    4 1   
     9    3    9 1   
    10    3   26 1   
    11    4    5 1   
    12    4   10 1   
    13    4   27 1   
    14    5    6 1   
    15    5   11 1   
    16    5   28 1   
    17    6   12 1   
    18    6   29 1   
    19    6   30 1   
    20    7   14 1   
    21    8   31 1   
    22    9   32 1   
    23   10   33 1   
    24   12   34 1   
    25   13   14 1   
    26   13   19 1   
    27   13   35 1   
    28   13   36 1   
    29   14   15 1   
    30   14   20 1   
    31   15   16 1   
    32   15   21 1   
    33   15   37 1   
    34   16   17 1   
    35   16   22 1   
    36   16   38 1   
    37   17   18 1   
    38   17   20 1   
    39   17   39 1   
    40   18   23 1   
    41   18   40 1   
    42   18   41 1   
    43   19   42 1   
    44   21   43 1   
    45   22   44 1   
    46   23   45 1   
@<TRIPOS>SUBSTRUCTURE
     1 SUC         1 TEMP              0 ****  ****    0 ROOT
