@<TRIPOS>MOLECULE
YF3  2-{[(4-AMINO-2-METHYLPYRIMIDIN-5-YL)METHYL]AMINO}PROPANE-1-THIOL.  C9 H16 N4 S. 
   30    30     1     0     0
SMALL
bcc via mopac
****
From PDBeChem: antechamber -fi pdb -fo mol2 -i YF3.pdb -o yf3.mol2 -c bcc
@<TRIPOS>ATOM
      1 N1'         1.3240    0.7870    2.3800 nb        1 YF3     -0.733800
      2 C2'         0.7260    0.2320    3.4150 ca        1 YF3      0.678900
      3 CM2         1.3460    0.3740    4.7820 c3        1 YF3     -0.135500
      4 N3'        -0.3970   -0.4430    3.2890 nb        1 YF3     -0.765000
      5 C4'        -0.9740   -0.5840    2.0990 ca        1 YF3      0.666500
      6 N4'        -2.1560   -1.2950    1.9700 nh        1 YF3     -0.931800
      7 C5'        -0.3630   -0.0130    0.9800 ca        1 YF3     -0.375400
      8 C6'         0.8130    0.6860    1.1610 ca        1 YF3      0.470600
      9 C7'        -0.9770   -0.1510   -0.3880 c3        1 YF3      0.233100
     10 N3         -0.1380    0.5440   -1.3730 n3        1 YF3     -0.825500
     11 C4         -0.7890    0.3710   -2.6790 c3        1 YF3      0.191600
     12 CM4        -1.7680    1.5230   -2.9170 c3        1 YF3     -0.089300
     13 S1          1.4320   -0.9970   -3.4990 sh        1 YF3     -0.393900
     14 C2          0.2710    0.3680   -3.7810 c3        1 YF3     -0.001800
     15 HM21        0.9590    1.2710    5.2640 hc        1 YF3      0.060300
     16 HM22        1.0980   -0.4980    5.3850 hc        1 YF3      0.060100
     17 HM23        2.4290    0.4530    4.6830 hc        1 YF3      0.063000
     18 H4'1       -2.5690   -1.6950    2.7510 hn        1 YF3      0.418700
     19 H4'2       -2.5700   -1.3930    1.0980 hn        1 YF3      0.408300
     20 H6'         1.3110    1.1440    0.3200 h4        1 YF3      0.038300
     21 H7'1       -1.9750    0.2870   -0.3860 h1        1 YF3      0.062400
     22 H7'2       -1.0460   -1.2070   -0.6510 h1        1 YF3      0.004600
     23 HN3         0.7350    0.0420   -1.4160 hn        1 YF3      0.377400
     24 H4         -1.3310   -0.5740   -2.6930 h1        1 YF3      0.034400
     25 HM41       -1.2260    2.4690   -2.9030 hc        1 YF3      0.048900
     26 HM42       -2.2510    1.3950   -3.8860 hc        1 YF3      0.034000
     27 HM43       -2.5240    1.5250   -2.1320 hc        1 YF3      0.044600
     28 HS1         2.2560   -0.8240   -4.5470 hs        1 YF3      0.211700
     29 H21        -0.2110    0.2390   -4.7500 h1        1 YF3      0.070900
     30 H22         0.8130    1.3130   -3.7670 h1        1 YF3      0.073800
@<TRIPOS>BOND
     1    1    2 ar  
     2    1    8 ar  
     3    2    3 1   
     4    2    4 ar  
     5    3   15 1   
     6    3   16 1   
     7    3   17 1   
     8    4    5 ar  
     9    5    6 1   
    10    5    7 ar  
    11    6   18 1   
    12    6   19 1   
    13    7    8 ar  
    14    7    9 1   
    15    8   20 1   
    16    9   10 1   
    17    9   21 1   
    18    9   22 1   
    19   10   11 1   
    20   10   23 1   
    21   11   12 1   
    22   11   14 1   
    23   11   24 1   
    24   12   25 1   
    25   12   26 1   
    26   12   27 1   
    27   13   14 1   
    28   13   28 1   
    29   14   29 1   
    30   14   30 1   
@<TRIPOS>SUBSTRUCTURE
     1 YF3         1 TEMP              0 ****  ****    0 ROOT
